CHEMBL400625
 OpenBabel05272217113D

 49 51  0  0  0  0  0  0  0  0999 V2000
    0.2753    1.1890   -0.1587 C   0  0  0  0  0  0  0  0  0  0  0  0
    0.1609   -0.3095   -0.0466 C   0  0  0  0  0  0  0  0  0  0  0  0
    0.2118   -1.0926   -1.1830 C   0  0  0  0  0  0  0  0  0  0  0  0
    0.1063   -2.4737   -1.0794 C   0  0  0  0  0  0  0  0  0  0  0  0
   -0.0504   -3.0658    0.1677 C   0  0  0  0  0  0  0  0  0  0  0  0
   -0.1011   -2.2810    1.3025 C   0  0  0  0  0  0  0  0  0  0  0  0
    0.0101   -0.9020    1.1983 C   0  0  0  0  0  0  0  0  0  0  0  0
   -0.0339   -0.1302    2.3173 O   0  0  0  0  0  0  0  0  0  0  0  0
   -0.0637   -0.8104    3.5737 C   0  0  0  0  0  0  0  0  0  0  0  0
    1.1832   -1.6868    3.7089 C   0  0  0  0  0  0  0  0  0  0  0  0
   -0.0914    0.2155    4.7085 C   0  0  0  0  0  0  0  0  0  0  0  0
   -1.2958   -1.6749    3.6479 C   0  0  0  0  0  0  0  0  0  0  0  0
   -2.0761   -1.7058    2.7116 O   0  0  0  0  0  0  0  0  0  0  0  0
   -1.5123   -2.3435    4.6442 O   0  5  0  0  0  0  0  0  0  0  0  0
    0.1706   -3.4741   -2.5285 S   0  0  0  0  0  0  0  0  0  0  0  0
   -0.0049   -5.1671   -1.9011 C   0  0  0  0  0  0  0  0  0  0  0  0
    0.0341   -6.1366   -3.0542 C   0  0  0  0  0  0  0  0  0  0  0  0
   -1.0659   -6.4878   -3.6752 N   0  0  0  0  0  0  0  0  0  0  0  0
   -0.9585   -7.3441   -4.6809 C   0  0  0  0  0  0  0  0  0  0  0  0
    0.6954   -7.6383   -4.7318 S   0  0  0  0  0  0  0  0  0  0  0  0
    1.1702   -6.6469   -3.4661 N   0  0  0  0  0  0  0  0  0  0  0  0
   -2.0252   -7.9005   -5.5416 C   0  0  0  0  0  0  0  0  0  0  0  0
   -3.3538   -7.5242   -5.3422 C   0  0  0  0  0  0  0  0  0  0  0  0
   -4.3442   -8.0467   -6.1483 C   0  0  0  0  0  0  0  0  0  0  0  0
   -4.0220   -8.9421   -7.1526 C   0  0  0  0  0  0  0  0  0  0  0  0
   -2.7065   -9.3192   -7.3554 C   0  0  0  0  0  0  0  0  0  0  0  0
   -1.7062   -8.7994   -6.5598 C   0  0  0  0  0  0  0  0  0  0  0  0
   -5.1088   -9.5093   -8.0290 C   0  0  0  0  0  0  0  0  0  0  0  0
   -5.2883   -8.6827   -9.1434 F   0  0  0  0  0  0  0  0  0  0  0  0
   -4.7439  -10.7915   -8.4535 F   0  0  0  0  0  0  0  0  0  0  0  0
   -6.3031   -9.5804   -7.3040 F   0  0  0  0  0  0  0  0  0  0  0  0
    1.3242    1.4790   -0.0960 H   0  0  0  0  0  0  0  0  0  0  0  0
   -0.1350    1.5142   -1.1147 H   0  0  0  0  0  0  0  0  0  0  0  0
   -0.2804    1.6576    0.6535 H   0  0  0  0  0  0  0  0  0  0  0  0
    0.3333   -0.6313   -2.1520 H   0  0  0  0  0  0  0  0  0  0  0  0
   -0.1329   -4.1396    0.2495 H   0  0  0  0  0  0  0  0  0  0  0  0
   -0.2229   -2.7410    2.2720 H   0  0  0  0  0  0  0  0  0  0  0  0
    2.0591   -1.0533    3.8487 H   0  0  0  0  0  0  0  0  0  0  0  0
    1.0715   -2.3473    4.5687 H   0  0  0  0  0  0  0  0  0  0  0  0
    1.3072   -2.2840    2.8056 H   0  0  0  0  0  0  0  0  0  0  0  0
   -0.9332    0.8931    4.5652 H   0  0  0  0  0  0  0  0  0  0  0  0
   -0.1989   -0.3007    5.6625 H   0  0  0  0  0  0  0  0  0  0  0  0
    0.8379    0.7851    4.7062 H   0  0  0  0  0  0  0  0  0  0  0  0
    0.8123   -5.3865   -1.2141 H   0  0  0  0  0  0  0  0  0  0  0  0
   -0.9559   -5.2637   -1.3773 H   0  0  0  0  0  0  0  0  0  0  0  0
   -3.6066   -6.8256   -4.5583 H   0  0  0  0  0  0  0  0  0  0  0  0
   -5.3731   -7.7565   -5.9948 H   0  0  0  0  0  0  0  0  0  0  0  0
   -2.4615  -10.0188   -8.1409 H   0  0  0  0  0  0  0  0  0  0  0  0
   -0.6791   -9.0911   -6.7220 H   0  0  0  0  0  0  0  0  0  0  0  0
  1  2  1  0  0  0  0
  1 32  1  0  0  0  0
  1 33  1  0  0  0  0
  1 34  1  0  0  0  0
  2  7  2  0  0  0  0
  2  3  1  0  0  0  0
  3  4  2  0  0  0  0
  3 35  1  0  0  0  0
  4  5  1  0  0  0  0
  4 15  1  0  0  0  0
  5  6  2  0  0  0  0
  5 36  1  0  0  0  0
  6  7  1  0  0  0  0
  6 37  1  0  0  0  0
  7  8  1  0  0  0  0
  8  9  1  0  0  0  0
  9 10  1  0  0  0  0
  9 11  1  0  0  0  0
  9 12  1  0  0  0  0
 10 38  1  0  0  0  0
 10 39  1  0  0  0  0
 10 40  1  0  0  0  0
 11 41  1  0  0  0  0
 11 42  1  0  0  0  0
 11 43  1  0  0  0  0
 12 13  2  0  0  0  0
 12 14  1  0  0  0  0
 15 16  1  0  0  0  0
 16 17  1  0  0  0  0
 16 44  1  0  0  0  0
 16 45  1  0  0  0  0
 17 21  2  0  0  0  0
 17 18  1  0  0  0  0
 18 19  2  0  0  0  0
 19 20  1  0  0  0  0
 19 22  1  0  0  0  0
 20 21  1  0  0  0  0
 22 27  2  0  0  0  0
 22 23  1  0  0  0  0
 23 24  2  0  0  0  0
 23 46  1  0  0  0  0
 24 25  1  0  0  0  0
 24 47  1  0  0  0  0
 25 26  2  0  0  0  0
 25 28  1  0  0  0  0
 26 27  1  0  0  0  0
 26 48  1  0  0  0  0
 27 49  1  0  0  0  0
 28 29  1  0  0  0  0
 28 30  1  0  0  0  0
 28 31  1  0  0  0  0
M  CHG  1  14  -1
M  END
$$$$
