CHEMBL1081917
 OpenBabel05272217113D

 60 62  0  0  1  0  0  0  0  0999 V2000
    1.5815    0.8083    0.8588 C   0  0  0  0  0  0  0  0  0  0  0  0
    0.8775   -0.4735    0.4951 C   0  0  0  0  0  0  0  0  0  0  0  0
    0.8379   -0.8911   -0.8213 C   0  0  0  0  0  0  0  0  0  0  0  0
    0.1918   -2.0667   -1.1557 C   0  0  0  0  0  0  0  0  0  0  0  0
   -0.4160   -2.8277   -0.1740 C   0  0  0  0  0  0  0  0  0  0  0  0
   -0.3789   -2.4148    1.1436 C   0  0  0  0  0  0  0  0  0  0  0  0
    0.2735   -1.2380    1.4825 C   0  0  0  0  0  0  0  0  0  0  0  0
    0.3163   -0.8325    2.7788 O   0  0  0  0  0  0  0  0  0  0  0  0
   -0.3270   -1.6695    3.7420 C   0  0  0  0  0  0  0  0  0  0  0  0
   -0.1771   -1.0639    5.1138 C   0  0  0  0  0  0  0  0  0  0  0  0
    0.4248   -0.0129    5.2536 O   0  0  0  0  0  0  0  0  0  0  0  0
   -0.6577   -1.6249    6.0837 O   0  5  0  0  0  0  0  0  0  0  0  0
    0.1493   -2.5193   -2.5925 C   0  0  0  0  0  0  0  0  0  0  0  0
    1.3806   -3.2545   -2.9109 N   0  3  2  0  0  0  0  0  0  0  0  0
    1.4007   -3.5788   -4.3435 C   0  0  0  0  0  0  0  0  0  0  0  0
    2.8260   -3.7637   -4.7967 C   0  0  0  0  0  0  0  0  0  0  0  0
    3.7404   -3.5063   -4.0425 O   0  0  0  0  0  0  0  0  0  0  0  0
    3.0846   -4.2151   -6.0400 N   0  0  0  0  0  0  0  0  0  0  0  0
    4.4040   -4.4757   -6.4299 C   0  0  0  0  0  0  0  0  0  0  0  0
    5.4552   -3.8061   -5.8180 C   0  0  0  0  0  0  0  0  0  0  0  0
    6.7557   -4.0648   -6.2044 C   0  0  0  0  0  0  0  0  0  0  0  0
    7.0122   -4.9903   -7.2009 C   0  0  0  0  0  0  0  0  0  0  0  0
    5.9672   -5.6594   -7.8129 C   0  0  0  0  0  0  0  0  0  0  0  0
    4.6640   -5.4090   -7.4259 C   0  0  0  0  0  0  0  0  0  0  0  0
    3.3533   -6.2538   -8.1889 Cl  0  0  0  0  0  0  0  0  0  0  0  0
    8.6482   -5.3118   -7.6845 Cl  0  0  0  0  0  0  0  0  0  0  0  0
    1.4261   -4.4961   -2.1271 C   0  0  0  0  0  0  0  0  0  0  0  0
    2.6814   -5.2880   -2.4984 C   0  0  0  0  0  0  0  0  0  0  0  0
    2.7288   -6.5812   -1.6821 C   0  0  0  0  0  0  0  0  0  0  0  0
    1.4871   -7.4218   -1.9859 C   0  0  0  0  0  0  0  0  0  0  0  0
    0.2317   -6.6300   -1.6145 C   0  0  0  0  0  0  0  0  0  0  0  0
    0.1843   -5.3368   -2.4308 C   0  0  0  0  0  0  0  0  0  0  0  0
    2.6277    0.5980    1.0805 H   0  0  0  0  0  0  0  0  0  0  0  0
    1.5202    1.5061    0.0236 H   0  0  0  0  0  0  0  0  0  0  0  0
    1.1057    1.2481    1.7353 H   0  0  0  0  0  0  0  0  0  0  0  0
    1.3118   -0.2985   -1.5898 H   0  0  0  0  0  0  0  0  0  0  0  0
   -0.9204   -3.7456   -0.4377 H   0  0  0  0  0  0  0  0  0  0  0  0
   -0.8537   -3.0095    1.9099 H   0  0  0  0  0  0  0  0  0  0  0  0
   -1.3855   -1.7577    3.4974 H   0  0  0  0  0  0  0  0  0  0  0  0
    0.1325   -2.6579    3.7290 H   0  0  0  0  0  0  0  0  0  0  0  0
   -0.7118   -3.1703   -2.7430 H   0  0  0  0  0  0  0  0  0  0  0  0
    0.0662   -1.6501   -3.2449 H   0  0  0  0  0  0  0  0  0  0  0  0
    0.8425   -4.4991   -4.5156 H   0  0  0  0  0  0  0  0  0  0  0  0
    0.9430   -2.7655   -4.9066 H   0  0  0  0  0  0  0  0  0  0  0  0
    2.3567   -4.3594   -6.6647 H   0  0  0  0  0  0  0  0  0  0  0  0
    5.2560   -3.0833   -5.0408 H   0  0  0  0  0  0  0  0  0  0  0  0
    7.5735   -3.5441   -5.7285 H   0  0  0  0  0  0  0  0  0  0  0  0
    6.1700   -6.3808   -8.5906 H   0  0  0  0  0  0  0  0  0  0  0  0
    1.4501   -4.2544   -1.0645 H   0  0  0  0  0  0  0  0  0  0  0  0
    2.6574   -5.5298   -3.5610 H   0  0  0  0  0  0  0  0  0  0  0  0
    3.5661   -4.6891   -2.2820 H   0  0  0  0  0  0  0  0  0  0  0  0
    3.6231   -7.1453   -1.9467 H   0  0  0  0  0  0  0  0  0  0  0  0
    2.7528   -6.3394   -0.6195 H   0  0  0  0  0  0  0  0  0  0  0  0
    1.4630   -7.6636   -3.0484 H   0  0  0  0  0  0  0  0  0  0  0  0
    1.5208   -8.3431   -1.4043 H   0  0  0  0  0  0  0  0  0  0  0  0
   -0.6529   -7.2289   -1.8309 H   0  0  0  0  0  0  0  0  0  0  0  0
    0.2557   -6.3882   -0.5519 H   0  0  0  0  0  0  0  0  0  0  0  0
   -0.7100   -4.7727   -2.1663 H   0  0  0  0  0  0  0  0  0  0  0  0
    0.1603   -5.5786   -3.4934 H   0  0  0  0  0  0  0  0  0  0  0  0
    2.1812   -2.6840   -2.6839 H   0  0  0  0  0  0  0  0  0  0  0  0
  1  2  1  0  0  0  0
  1 33  1  0  0  0  0
  1 34  1  0  0  0  0
  1 35  1  0  0  0  0
  2  7  2  0  0  0  0
  2  3  1  0  0  0  0
  3  4  2  0  0  0  0
  3 36  1  0  0  0  0
  4  5  1  0  0  0  0
  4 13  1  0  0  0  0
  5  6  2  0  0  0  0
  5 37  1  0  0  0  0
  6  7  1  0  0  0  0
  6 38  1  0  0  0  0
  7  8  1  0  0  0  0
  8  9  1  0  0  0  0
  9 10  1  0  0  0  0
  9 39  1  0  0  0  0
  9 40  1  0  0  0  0
 10 11  2  0  0  0  0
 10 12  1  0  0  0  0
 13 14  1  0  0  0  0
 13 41  1  0  0  0  0
 13 42  1  0  0  0  0
 14 15  1  0  0  0  0
 14 27  1  0  0  0  0
 14 60  1  1  0  0  0
 15 16  1  0  0  0  0
 15 43  1  0  0  0  0
 15 44  1  0  0  0  0
 16 17  2  0  0  0  0
 16 18  1  0  0  0  0
 18 19  1  0  0  0  0
 18 45  1  0  0  0  0
 19 24  2  0  0  0  0
 19 20  1  0  0  0  0
 20 21  2  0  0  0  0
 20 46  1  0  0  0  0
 21 22  1  0  0  0  0
 21 47  1  0  0  0  0
 22 23  2  0  0  0  0
 22 26  1  0  0  0  0
 23 24  1  0  0  0  0
 23 48  1  0  0  0  0
 24 25  1  0  0  0  0
 27 32  1  0  0  0  0
 27 28  1  0  0  0  0
 27 49  1  0  0  0  0
 28 29  1  0  0  0  0
 28 50  1  0  0  0  0
 28 51  1  0  0  0  0
 29 30  1  0  0  0  0
 29 52  1  0  0  0  0
 29 53  1  0  0  0  0
 30 31  1  0  0  0  0
 30 54  1  0  0  0  0
 30 55  1  0  0  0  0
 31 32  1  0  0  0  0
 31 56  1  0  0  0  0
 31 57  1  0  0  0  0
 32 58  1  0  0  0  0
 32 59  1  0  0  0  0
M  CHG  2  12  -1  14   1
M  END
$$$$
