CHEMBL208202
 OpenBabel05272217113D

 68 72  0  0  0  0  0  0  0  0999 V2000
   -0.0184    1.5028    0.0103 C   0  0  0  0  0  0  0  0  0  0  0  0
    0.0021   -0.0041    0.0020 C   0  0  0  0  0  0  0  0  0  0  0  0
    0.0058   -0.6883   -1.1982 C   0  0  0  0  0  0  0  0  0  0  0  0
    0.0251   -2.0749   -1.2058 C   0  0  0  0  0  0  0  0  0  0  0  0
    0.0406   -2.7749   -0.0083 C   0  0  0  0  0  0  0  0  0  0  0  0
    0.0369   -2.0909    1.1915 C   0  0  0  0  0  0  0  0  0  0  0  0
    0.0229   -0.7038    1.1991 C   0  0  0  0  0  0  0  0  0  0  0  0
    0.0250   -0.0303    2.3804 O   0  0  0  0  0  0  0  0  0  0  0  0
    0.0470   -0.8150    3.5745 C   0  0  0  0  0  0  0  0  0  0  0  0
    0.0459    0.0965    4.7746 C   0  0  0  0  0  0  0  0  0  0  0  0
    0.0280    1.3060    4.6215 O   0  0  0  0  0  0  0  0  0  0  0  0
    0.0630   -0.3755    5.8986 O   0  5  0  0  0  0  0  0  0  0  0  0
    0.0283   -2.7483   -2.3872 O   0  0  0  0  0  0  0  0  0  0  0  0
    0.0485   -4.1756   -2.3202 C   0  0  0  0  0  0  0  0  0  0  0  0
    0.0491   -4.7440   -3.7159 C   0  0  0  0  0  0  0  0  0  0  0  0
   -1.1481   -5.0148   -4.3489 C   0  0  0  0  0  0  0  0  0  0  0  0
   -1.1535   -5.5407   -5.6402 C   0  0  0  0  0  0  0  0  0  0  0  0
    0.0509   -5.7927   -6.2911 C   0  0  0  0  0  0  0  0  0  0  0  0
    1.2536   -5.5178   -5.6484 C   0  0  0  0  0  0  0  0  0  0  0  0
    1.2467   -4.9867   -4.3592 C   0  0  0  0  0  0  0  0  0  0  0  0
    2.5416   -5.7837   -6.3360 C   0  0  0  0  0  0  0  0  0  0  0  0
    2.5498   -6.3037   -7.6286 C   0  0  0  0  0  0  0  0  0  0  0  0
    3.7506   -6.5486   -8.2635 C   0  0  0  0  0  0  0  0  0  0  0  0
    4.9443   -6.2792   -7.6188 C   0  0  0  0  0  0  0  0  0  0  0  0
    4.9420   -5.7629   -6.3355 C   0  0  0  0  0  0  0  0  0  0  0  0
    3.7470   -5.5088   -5.6934 C   0  0  0  0  0  0  0  0  0  0  0  0
    6.2522   -6.5497   -8.3168 C   0  0  0  0  0  0  0  0  0  0  0  0
    6.6470   -5.4099   -9.0255 F   0  0  0  0  0  0  0  0  0  0  0  0
    7.2293   -6.8708   -7.3684 F   0  0  0  0  0  0  0  0  0  0  0  0
    6.0946   -7.6194   -9.2045 F   0  0  0  0  0  0  0  0  0  0  0  0
   -2.4400   -5.8317   -6.3187 C   0  0  0  0  0  0  0  0  0  0  0  0
   -2.4437   -6.3630   -7.6080 C   0  0  0  0  0  0  0  0  0  0  0  0
   -3.6384   -6.6332   -8.2381 C   0  0  0  0  0  0  0  0  0  0  0  0
   -4.8442   -6.3758   -7.5866 C   0  0  0  0  0  0  0  0  0  0  0  0
   -4.8404   -5.8449   -6.2972 C   0  0  0  0  0  0  0  0  0  0  0  0
   -3.6456   -5.5792   -5.6652 C   0  0  0  0  0  0  0  0  0  0  0  0
   -6.1305   -6.6662   -8.2653 C   0  0  0  0  0  0  0  0  0  0  0  0
   -6.1372   -7.2018   -9.5521 C   0  0  0  0  0  0  0  0  0  0  0  0
   -7.3372   -7.4701  -10.1787 C   0  0  0  0  0  0  0  0  0  0  0  0
   -8.5318   -7.2079   -9.5324 C   0  0  0  0  0  0  0  0  0  0  0  0
   -8.5312   -6.6764   -8.2553 C   0  0  0  0  0  0  0  0  0  0  0  0
   -7.3372   -6.4100   -7.6165 C   0  0  0  0  0  0  0  0  0  0  0  0
    1.0042    1.8801    0.0026 H   0  0  0  0  0  0  0  0  0  0  0  0
   -0.5455    1.8639   -0.8728 H   0  0  0  0  0  0  0  0  0  0  0  0
   -0.5286    1.8543    0.9071 H   0  0  0  0  0  0  0  0  0  0  0  0
   -0.0067   -0.1432   -2.1305 H   0  0  0  0  0  0  0  0  0  0  0  0
    0.0553   -3.8548   -0.0143 H   0  0  0  0  0  0  0  0  0  0  0  0
    0.0483   -2.6360    2.1238 H   0  0  0  0  0  0  0  0  0  0  0  0
   -0.8341   -1.4560    3.6044 H   0  0  0  0  0  0  0  0  0  0  0  0
    0.9456   -1.4317    3.5875 H   0  0  0  0  0  0  0  0  0  0  0  0
    0.9459   -4.5020   -1.7946 H   0  0  0  0  0  0  0  0  0  0  0  0
   -0.8339   -4.5268   -1.7853 H   0  0  0  0  0  0  0  0  0  0  0  0
   -2.0818   -4.8193   -3.8427 H   0  0  0  0  0  0  0  0  0  0  0  0
    0.0516   -6.2003   -7.2912 H   0  0  0  0  0  0  0  0  0  0  0  0
    2.1799   -4.7685   -3.8612 H   0  0  0  0  0  0  0  0  0  0  0  0
    1.6183   -6.5150   -8.1326 H   0  0  0  0  0  0  0  0  0  0  0  0
    3.7581   -6.9517   -9.2655 H   0  0  0  0  0  0  0  0  0  0  0  0
    5.8769   -5.5548   -5.8366 H   0  0  0  0  0  0  0  0  0  0  0  0
    3.7462   -5.1015   -4.6931 H   0  0  0  0  0  0  0  0  0  0  0  0
   -1.5098   -6.5624   -8.1125 H   0  0  0  0  0  0  0  0  0  0  0  0
   -3.6413   -7.0441   -9.2369 H   0  0  0  0  0  0  0  0  0  0  0  0
   -5.7743   -5.6452   -5.7927 H   0  0  0  0  0  0  0  0  0  0  0  0
   -3.6427   -5.1715   -4.6651 H   0  0  0  0  0  0  0  0  0  0  0  0
   -5.2051   -7.4062  -10.0579 H   0  0  0  0  0  0  0  0  0  0  0  0
   -7.3436   -7.8851  -11.1758 H   0  0  0  0  0  0  0  0  0  0  0  0
   -9.4685   -7.4187  -10.0269 H   0  0  0  0  0  0  0  0  0  0  0  0
   -9.4668   -6.4734   -7.7556 H   0  0  0  0  0  0  0  0  0  0  0  0
   -7.3379   -5.9995   -6.6176 H   0  0  0  0  0  0  0  0  0  0  0  0
  1  2  1  0  0  0  0
  1 43  1  0  0  0  0
  1 44  1  0  0  0  0
  1 45  1  0  0  0  0
  2  7  2  0  0  0  0
  2  3  1  0  0  0  0
  3  4  2  0  0  0  0
  3 46  1  0  0  0  0
  4  5  1  0  0  0  0
  4 13  1  0  0  0  0
  5  6  2  0  0  0  0
  5 47  1  0  0  0  0
  6  7  1  0  0  0  0
  6 48  1  0  0  0  0
  7  8  1  0  0  0  0
  8  9  1  0  0  0  0
  9 10  1  0  0  0  0
  9 49  1  0  0  0  0
  9 50  1  0  0  0  0
 10 11  2  0  0  0  0
 10 12  1  0  0  0  0
 13 14  1  0  0  0  0
 14 15  1  0  0  0  0
 14 51  1  0  0  0  0
 14 52  1  0  0  0  0
 15 20  2  0  0  0  0
 15 16  1  0  0  0  0
 16 17  2  0  0  0  0
 16 53  1  0  0  0  0
 17 18  1  0  0  0  0
 17 31  1  0  0  0  0
 18 19  2  0  0  0  0
 18 54  1  0  0  0  0
 19 20  1  0  0  0  0
 19 21  1  0  0  0  0
 20 55  1  0  0  0  0
 21 26  2  0  0  0  0
 21 22  1  0  0  0  0
 22 23  2  0  0  0  0
 22 56  1  0  0  0  0
 23 24  1  0  0  0  0
 23 57  1  0  0  0  0
 24 25  2  0  0  0  0
 24 27  1  0  0  0  0
 25 26  1  0  0  0  0
 25 58  1  0  0  0  0
 26 59  1  0  0  0  0
 27 28  1  0  0  0  0
 27 29  1  0  0  0  0
 27 30  1  0  0  0  0
 31 36  2  0  0  0  0
 31 32  1  0  0  0  0
 32 33  2  0  0  0  0
 32 60  1  0  0  0  0
 33 34  1  0  0  0  0
 33 61  1  0  0  0  0
 34 35  2  0  0  0  0
 34 37  1  0  0  0  0
 35 36  1  0  0  0  0
 35 62  1  0  0  0  0
 36 63  1  0  0  0  0
 37 42  2  0  0  0  0
 37 38  1  0  0  0  0
 38 39  2  0  0  0  0
 38 64  1  0  0  0  0
 39 40  1  0  0  0  0
 39 65  1  0  0  0  0
 40 41  2  0  0  0  0
 40 66  1  0  0  0  0
 41 42  1  0  0  0  0
 41 67  1  0  0  0  0
 42 68  1  0  0  0  0
M  CHG  1  12  -1
M  END
$$$$
