CHEMBL501980
 OpenBabel05272217113D

 67 70  0  0  1  0  0  0  0  0999 V2000
    3.8097    0.3140   -4.2922 C   0  0  0  0  0  0  0  0  0  0  0  0
    3.4089   -1.0607   -3.8226 C   0  0  0  0  0  0  0  0  0  0  0  0
    2.0859   -1.3335   -3.5353 C   0  0  0  0  0  0  0  0  0  0  0  0
    1.7167   -2.6009   -3.1029 C   0  0  0  0  0  0  0  0  0  0  0  0
    2.6792   -3.5929   -2.9599 C   0  0  0  0  0  0  0  0  0  0  0  0
    4.0011   -3.3179   -3.2477 C   0  0  0  0  0  0  0  0  0  0  0  0
    4.3680   -2.0532   -3.6846 C   0  0  0  0  0  0  0  0  0  0  0  0
    5.6697   -1.7849   -3.9728 O   0  0  0  0  0  0  0  0  0  0  0  0
    6.6041   -2.8535   -3.8084 C   0  0  0  0  0  0  0  0  0  0  0  0
    7.9855   -2.3731   -4.1717 C   0  0  0  0  0  0  0  0  0  0  0  0
    8.1542   -1.2224   -4.5376 O   0  0  0  0  0  0  0  0  0  0  0  0
    8.9345   -3.1353   -4.0999 O   0  5  0  0  0  0  0  0  0  0  0  0
    0.0293   -2.9503   -2.7354 S   0  0  0  0  0  0  0  0  0  0  0  0
    0.0157   -4.6796   -2.3978 C   0  0  0  0  0  0  0  0  0  0  0  0
   -0.0729   -5.1325   -1.0887 C   0  0  0  0  0  0  0  0  0  0  0  0
   -0.0833   -6.4893   -0.8268 C   0  0  0  0  0  0  0  0  0  0  0  0
   -0.0052   -7.3982   -1.8659 C   0  0  0  0  0  0  0  0  0  0  0  0
    0.0838   -6.9546   -3.1728 C   0  0  0  0  0  0  0  0  0  0  0  0
    0.0881   -5.5966   -3.4448 C   0  0  0  0  0  0  0  0  0  0  0  0
    0.1694   -5.1591   -4.7299 O   0  0  0  0  0  0  0  0  0  0  0  0
    0.2406   -6.1558   -5.7514 C   0  0  0  0  0  0  0  0  0  0  0  0
    0.3261   -5.4780   -7.1204 C   0  0  1  0  0  0  0  0  0  0  0  0
    0.4590   -6.5412   -8.2396 C   0  0  0  0  0  0  0  0  0  0  0  0
   -0.1102   -5.7614   -9.4561 C   0  0  0  0  0  0  0  0  0  0  0  0
   -1.2040   -4.8891   -8.8034 C   0  0  0  0  0  0  0  0  0  0  0  0
   -0.8962   -4.7807   -7.4087 O   0  0  0  0  0  0  0  0  0  0  0  0
   -0.0165   -8.8765   -1.5735 C   0  0  0  0  0  0  0  0  0  0  0  0
   -1.3640   -9.3521   -1.5749 O   0  0  0  0  0  0  0  0  0  0  0  0
   -1.5518  -10.6748   -1.3258 C   0  0  0  0  0  0  0  0  0  0  0  0
   -0.4618  -11.4970   -1.0794 C   0  0  0  0  0  0  0  0  0  0  0  0
   -0.6554  -12.8411   -0.8260 C   0  0  0  0  0  0  0  0  0  0  0  0
   -1.9340  -13.3673   -0.8183 C   0  0  0  0  0  0  0  0  0  0  0  0
   -3.0218  -12.5501   -1.0641 C   0  0  0  0  0  0  0  0  0  0  0  0
   -2.8341  -11.2041   -1.3119 C   0  0  0  0  0  0  0  0  0  0  0  0
   -2.1421  -14.8341   -0.5421 C   0  0  0  0  0  0  0  0  0  0  0  0
   -2.3045  -15.0311    0.8334 F   0  0  0  0  0  0  0  0  0  0  0  0
   -3.2857  -15.2776   -1.2149 F   0  0  0  0  0  0  0  0  0  0  0  0
   -1.0294  -15.5552   -0.9884 F   0  0  0  0  0  0  0  0  0  0  0  0
    1.0433   -0.2565   -3.6904 C   0  0  0  0  0  0  0  0  0  0  0  0
    3.7495    0.3584   -5.3796 H   0  0  0  0  0  0  0  0  0  0  0  0
    3.1376    1.0557   -3.8605 H   0  0  0  0  0  0  0  0  0  0  0  0
    4.8318    0.5223   -3.9761 H   0  0  0  0  0  0  0  0  0  0  0  0
    2.3933   -4.5785   -2.6235 H   0  0  0  0  0  0  0  0  0  0  0  0
    4.7494   -4.0886   -3.1363 H   0  0  0  0  0  0  0  0  0  0  0  0
    6.5965   -3.1863   -2.7705 H   0  0  0  0  0  0  0  0  0  0  0  0
    6.3253   -3.6831   -4.4580 H   0  0  0  0  0  0  0  0  0  0  0  0
   -0.1333   -4.4248   -0.2752 H   0  0  0  0  0  0  0  0  0  0  0  0
   -0.1523   -6.8407    0.1921 H   0  0  0  0  0  0  0  0  0  0  0  0
    0.1454   -7.6674   -3.9818 H   0  0  0  0  0  0  0  0  0  0  0  0
    1.1254   -6.7731   -5.5957 H   0  0  0  0  0  0  0  0  0  0  0  0
   -0.6508   -6.7818   -5.7109 H   0  0  0  0  0  0  0  0  0  0  0  0
    1.1704   -4.7892   -7.1487 H   0  0  0  0  0  0  0  0  0  0  0  0
    1.5021   -6.8137   -8.4008 H   0  0  0  0  0  0  0  0  0  0  0  0
   -0.1454   -7.4212   -8.0193 H   0  0  0  0  0  0  0  0  0  0  0  0
    0.6599   -5.1402   -9.9134 H   0  0  0  0  0  0  0  0  0  0  0  0
   -0.5434   -6.4447  -10.1866 H   0  0  0  0  0  0  0  0  0  0  0  0
   -1.2083   -3.8990   -9.2592 H   0  0  0  0  0  0  0  0  0  0  0  0
   -2.1783   -5.3607   -8.9314 H   0  0  0  0  0  0  0  0  0  0  0  0
    0.5552   -9.4026   -2.3380 H   0  0  0  0  0  0  0  0  0  0  0  0
    0.4315   -9.0571   -0.5963 H   0  0  0  0  0  0  0  0  0  0  0  0
    0.5371  -11.0866   -1.0859 H   0  0  0  0  0  0  0  0  0  0  0  0
    0.1928  -13.4816   -0.6341 H   0  0  0  0  0  0  0  0  0  0  0  0
   -4.0196  -12.9635   -1.0579 H   0  0  0  0  0  0  0  0  0  0  0  0
   -3.6845  -10.5653   -1.4994 H   0  0  0  0  0  0  0  0  0  0  0  0
    0.6396   -0.2847   -4.7024 H   0  0  0  0  0  0  0  0  0  0  0  0
    0.2392   -0.4234   -2.9737 H   0  0  0  0  0  0  0  0  0  0  0  0
    1.4970    0.7175   -3.5071 H   0  0  0  0  0  0  0  0  0  0  0  0
  1  2  1  0  0  0  0
  1 40  1  0  0  0  0
  1 41  1  0  0  0  0
  1 42  1  0  0  0  0
  2  7  2  0  0  0  0
  2  3  1  0  0  0  0
  3  4  2  0  0  0  0
  3 39  1  0  0  0  0
  4  5  1  0  0  0  0
  4 13  1  0  0  0  0
  5  6  2  0  0  0  0
  5 43  1  0  0  0  0
  6  7  1  0  0  0  0
  6 44  1  0  0  0  0
  7  8  1  0  0  0  0
  8  9  1  0  0  0  0
  9 10  1  0  0  0  0
  9 45  1  0  0  0  0
  9 46  1  0  0  0  0
 10 11  2  0  0  0  0
 10 12  1  0  0  0  0
 13 14  1  0  0  0  0
 14 19  2  0  0  0  0
 14 15  1  0  0  0  0
 15 16  2  0  0  0  0
 15 47  1  0  0  0  0
 16 17  1  0  0  0  0
 16 48  1  0  0  0  0
 17 18  2  0  0  0  0
 17 27  1  0  0  0  0
 18 19  1  0  0  0  0
 18 49  1  0  0  0  0
 19 20  1  0  0  0  0
 20 21  1  0  0  0  0
 21 22  1  0  0  0  0
 21 50  1  0  0  0  0
 21 51  1  0  0  0  0
 22 26  1  0  0  0  0
 22 23  1  0  0  0  0
 22 52  1  6  0  0  0
 23 24  1  0  0  0  0
 23 53  1  0  0  0  0
 23 54  1  0  0  0  0
 24 25  1  0  0  0  0
 24 55  1  0  0  0  0
 24 56  1  0  0  0  0
 25 26  1  0  0  0  0
 25 57  1  0  0  0  0
 25 58  1  0  0  0  0
 27 28  1  0  0  0  0
 27 59  1  0  0  0  0
 27 60  1  0  0  0  0
 28 29  1  0  0  0  0
 29 34  2  0  0  0  0
 29 30  1  0  0  0  0
 30 31  2  0  0  0  0
 30 61  1  0  0  0  0
 31 32  1  0  0  0  0
 31 62  1  0  0  0  0
 32 33  2  0  0  0  0
 32 35  1  0  0  0  0
 33 34  1  0  0  0  0
 33 63  1  0  0  0  0
 34 64  1  0  0  0  0
 35 36  1  0  0  0  0
 35 37  1  0  0  0  0
 35 38  1  0  0  0  0
 39 65  1  0  0  0  0
 39 66  1  0  0  0  0
 39 67  1  0  0  0  0
M  CHG  1  12  -1
M  END
$$$$
