CHEMBL259873
 OpenBabel05272217113D

 44 46  0  0  0  0  0  0  0  0999 V2000
   -0.0184    1.5028    0.0103 C   0  0  0  0  0  0  0  0  0  0  0  0
    0.0021   -0.0041    0.0020 C   0  0  0  0  0  0  0  0  0  0  0  0
    0.0057   -0.6878   -1.1980 C   0  0  0  0  0  0  0  0  0  0  0  0
    0.0246   -2.0766   -1.2053 C   0  0  0  0  0  0  0  0  0  0  0  0
    0.0397   -2.7765   -0.0051 C   0  0  0  0  0  0  0  0  0  0  0  0
    0.0360   -2.0909    1.1933 C   0  0  0  0  0  0  0  0  0  0  0  0
    0.0229   -0.7036    1.1994 C   0  0  0  0  0  0  0  0  0  0  0  0
    0.0254   -0.0293    2.3804 O   0  0  0  0  0  0  0  0  0  0  0  0
    0.0474   -0.8131    3.5751 C   0  0  0  0  0  0  0  0  0  0  0  0
    0.0468    0.0992    4.7746 C   0  0  0  0  0  0  0  0  0  0  0  0
    0.0293    1.3085    4.6207 O   0  0  0  0  0  0  0  0  0  0  0  0
    0.0640   -0.3721    5.8989 O   0  5  0  0  0  0  0  0  0  0  0  0
    0.0286   -2.9502   -2.7355 S   0  0  0  0  0  0  0  0  0  0  0  0
    0.0549   -4.6962   -2.2439 C   0  0  0  0  0  0  0  0  0  0  0  0
    0.0604   -5.5647   -3.4755 C   0  0  0  0  0  0  0  0  0  0  0  0
   -1.0733   -6.0491   -4.1443 C   0  0  0  0  0  0  0  0  0  0  0  0
   -0.6511   -6.7911   -5.2039 C   0  0  0  0  0  0  0  0  0  0  0  0
    0.6950   -6.7759   -5.2040 O   0  0  0  0  0  0  0  0  0  0  0  0
    1.1199   -5.9902   -4.1053 N   0  0  0  0  0  0  0  0  0  0  0  0
   -1.5154   -7.4887   -6.1796 C   0  0  0  0  0  0  0  0  0  0  0  0
   -2.9043   -7.4156   -6.0635 C   0  0  0  0  0  0  0  0  0  0  0  0
   -3.7052   -8.0689   -6.9774 C   0  0  0  0  0  0  0  0  0  0  0  0
   -3.1343   -8.7954   -8.0072 C   0  0  0  0  0  0  0  0  0  0  0  0
   -1.7582   -8.8719   -8.1280 C   0  0  0  0  0  0  0  0  0  0  0  0
   -0.9460   -8.2185   -7.2242 C   0  0  0  0  0  0  0  0  0  0  0  0
   -4.0153   -9.5069   -9.0015 C   0  0  0  0  0  0  0  0  0  0  0  0
   -4.2956   -8.6513  -10.0723 F   0  0  0  0  0  0  0  0  0  0  0  0
   -3.3574  -10.6470   -9.4754 F   0  0  0  0  0  0  0  0  0  0  0  0
   -5.2109   -9.8830   -8.3798 F   0  0  0  0  0  0  0  0  0  0  0  0
    1.0042    1.8801    0.0026 H   0  0  0  0  0  0  0  0  0  0  0  0
   -0.5455    1.8639   -0.8728 H   0  0  0  0  0  0  0  0  0  0  0  0
   -0.5286    1.8543    0.9071 H   0  0  0  0  0  0  0  0  0  0  0  0
   -0.0064   -0.1428   -2.1303 H   0  0  0  0  0  0  0  0  0  0  0  0
    0.0540   -3.8564   -0.0097 H   0  0  0  0  0  0  0  0  0  0  0  0
    0.0478   -2.6347    2.1263 H   0  0  0  0  0  0  0  0  0  0  0  0
   -0.8339   -1.4538    3.6055 H   0  0  0  0  0  0  0  0  0  0  0  0
    0.9458   -1.4302    3.5883 H   0  0  0  0  0  0  0  0  0  0  0  0
    0.9506   -4.8945   -1.6554 H   0  0  0  0  0  0  0  0  0  0  0  0
   -0.8291   -4.9187   -1.6464 H   0  0  0  0  0  0  0  0  0  0  0  0
   -2.1008   -5.8653   -3.8671 H   0  0  0  0  0  0  0  0  0  0  0  0
   -3.3511   -6.8491   -5.2599 H   0  0  0  0  0  0  0  0  0  0  0  0
   -4.7801   -8.0135   -6.8885 H   0  0  0  0  0  0  0  0  0  0  0  0
   -1.3188   -9.4409   -8.9339 H   0  0  0  0  0  0  0  0  0  0  0  0
    0.1280   -8.2752   -7.3221 H   0  0  0  0  0  0  0  0  0  0  0  0
  1  2  1  0  0  0  0
  1 30  1  0  0  0  0
  1 31  1  0  0  0  0
  1 32  1  0  0  0  0
  2  7  2  0  0  0  0
  2  3  1  0  0  0  0
  3  4  2  0  0  0  0
  3 33  1  0  0  0  0
  4  5  1  0  0  0  0
  4 13  1  0  0  0  0
  5  6  2  0  0  0  0
  5 34  1  0  0  0  0
  6  7  1  0  0  0  0
  6 35  1  0  0  0  0
  7  8  1  0  0  0  0
  8  9  1  0  0  0  0
  9 10  1  0  0  0  0
  9 36  1  0  0  0  0
  9 37  1  0  0  0  0
 10 11  2  0  0  0  0
 10 12  1  0  0  0  0
 13 14  1  0  0  0  0
 14 15  1  0  0  0  0
 14 38  1  0  0  0  0
 14 39  1  0  0  0  0
 15 19  2  0  0  0  0
 15 16  1  0  0  0  0
 16 17  2  0  0  0  0
 16 40  1  0  0  0  0
 17 18  1  0  0  0  0
 17 20  1  0  0  0  0
 18 19  1  0  0  0  0
 20 25  2  0  0  0  0
 20 21  1  0  0  0  0
 21 22  2  0  0  0  0
 21 41  1  0  0  0  0
 22 23  1  0  0  0  0
 22 42  1  0  0  0  0
 23 24  2  0  0  0  0
 23 26  1  0  0  0  0
 24 25  1  0  0  0  0
 24 43  1  0  0  0  0
 25 44  1  0  0  0  0
 26 27  1  0  0  0  0
 26 28  1  0  0  0  0
 26 29  1  0  0  0  0
M  CHG  1  12  -1
M  END
$$$$
