CHEMBL201880
 OpenBabel05272217113D

 69 73  0  0  0  0  0  0  0  0999 V2000
   -0.6540    1.0471    0.5607 C   0  0  0  0  0  0  0  0  0  0  0  0
   -0.4152   -0.4263    0.2244 C   0  0  0  0  0  0  0  0  0  0  0  0
    0.5384   -0.5293   -0.9676 C   0  0  0  0  0  0  0  0  0  0  0  0
    0.7737   -1.9805   -1.2987 C   0  0  0  0  0  0  0  0  0  0  0  0
    1.8261   -2.6815   -0.6910 C   0  0  0  0  0  0  0  0  0  0  0  0
    2.6786   -2.0490    0.2343 C   0  0  0  0  0  0  0  0  0  0  0  0
    3.6905   -2.7441    0.8109 C   0  0  0  0  0  0  0  0  0  0  0  0
    3.9044   -4.0998    0.4972 C   0  0  0  0  0  0  0  0  0  0  0  0
    3.0814   -4.7505   -0.4100 C   0  0  0  0  0  0  0  0  0  0  0  0
    2.0309   -4.0474   -1.0158 C   0  0  0  0  0  0  0  0  0  0  0  0
    1.1762   -4.6768   -1.9402 C   0  0  0  0  0  0  0  0  0  0  0  0
    0.1640   -3.9743   -2.5137 C   0  0  0  0  0  0  0  0  0  0  0  0
   -0.0466   -2.6283   -2.1953 C   0  0  0  0  0  0  0  0  0  0  0  0
   -1.0690   -1.9520   -2.7798 O   0  0  0  0  0  0  0  0  0  0  0  0
   -1.8847   -2.6786   -3.7011 C   0  0  0  0  0  0  0  0  0  0  0  0
   -2.9751   -1.7581   -4.2528 C   0  0  0  0  0  0  0  0  0  0  0  0
   -3.8485   -2.5361   -5.2392 C   0  0  0  0  0  0  0  0  0  0  0  0
   -4.8669   -1.6763   -5.7545 O   0  0  0  0  0  0  0  0  0  0  0  0
   -5.7352   -2.2161   -6.6512 C   0  0  0  0  0  0  0  0  0  0  0  0
   -5.6083   -3.5527   -7.0211 C   0  0  0  0  0  0  0  0  0  0  0  0
   -6.4791   -4.1152   -7.9272 C   0  0  0  0  0  0  0  0  0  0  0  0
   -7.4973   -3.3471   -8.4823 C   0  0  0  0  0  0  0  0  0  0  0  0
   -7.6280   -1.9972   -8.1108 C   0  0  0  0  0  0  0  0  0  0  0  0
   -6.7422   -1.4384   -7.1867 C   0  0  0  0  0  0  0  0  0  0  0  0
   -8.7757   -1.4798   -8.8598 C   0  0  0  0  0  0  0  0  0  0  0  0
   -9.2492   -2.4928   -9.6027 C   0  0  0  0  0  0  0  0  0  0  0  0
   -8.4988   -3.6169   -9.3910 N   0  0  0  0  0  0  0  0  0  0  0  0
   -8.7248   -4.9135  -10.0344 C   0  0  0  0  0  0  0  0  0  0  0  0
   -9.5660   -5.7812   -9.1340 C   0  0  0  0  0  0  0  0  0  0  0  0
   -9.9418   -5.3559   -8.0549 O   0  0  0  0  0  0  0  0  0  0  0  0
   -9.8707   -6.9084   -9.4846 O   0  5  0  0  0  0  0  0  0  0  0  0
    5.0128   -4.8337    1.1379 C   0  0  0  0  0  0  0  0  0  0  0  0
    5.6483   -4.3135    2.0344 O   0  0  0  0  0  0  0  0  0  0  0  0
    5.3502   -6.2007    0.6899 C   0  0  0  0  0  0  0  0  0  0  0  0
    5.2146   -6.5517   -0.6551 C   0  0  0  0  0  0  0  0  0  0  0  0
    5.5313   -7.8296   -1.0663 C   0  0  0  0  0  0  0  0  0  0  0  0
    5.9821   -8.7632   -0.1496 C   0  0  0  0  0  0  0  0  0  0  0  0
    6.1184   -8.4224    1.1847 C   0  0  0  0  0  0  0  0  0  0  0  0
    5.8116   -7.1462    1.6086 C   0  0  0  0  0  0  0  0  0  0  0  0
    0.2949    1.5207    0.8125 H   0  0  0  0  0  0  0  0  0  0  0  0
   -1.0936    1.5497   -0.3008 H   0  0  0  0  0  0  0  0  0  0  0  0
   -1.3334    1.1205    1.4099 H   0  0  0  0  0  0  0  0  0  0  0  0
    0.0244   -0.9289    1.0860 H   0  0  0  0  0  0  0  0  0  0  0  0
   -1.3641   -0.8999   -0.0274 H   0  0  0  0  0  0  0  0  0  0  0  0
    0.0988   -0.0267   -1.8291 H   0  0  0  0  0  0  0  0  0  0  0  0
    1.4873   -0.0557   -0.7157 H   0  0  0  0  0  0  0  0  0  0  0  0
    2.5267   -1.0094    0.4848 H   0  0  0  0  0  0  0  0  0  0  0  0
    4.3403   -2.2515    1.5190 H   0  0  0  0  0  0  0  0  0  0  0  0
    3.2488   -5.7906   -0.6480 H   0  0  0  0  0  0  0  0  0  0  0  0
    1.3248   -5.7161   -2.1936 H   0  0  0  0  0  0  0  0  0  0  0  0
   -0.4886   -4.4625   -3.2223 H   0  0  0  0  0  0  0  0  0  0  0  0
   -1.2681   -3.0442   -4.5222 H   0  0  0  0  0  0  0  0  0  0  0  0
   -2.3466   -3.5231   -3.1896 H   0  0  0  0  0  0  0  0  0  0  0  0
   -3.5917   -1.3925   -3.4317 H   0  0  0  0  0  0  0  0  0  0  0  0
   -2.5132   -0.9136   -4.7643 H   0  0  0  0  0  0  0  0  0  0  0  0
   -3.2319   -2.9017   -6.0603 H   0  0  0  0  0  0  0  0  0  0  0  0
   -4.3104   -3.3806   -4.7277 H   0  0  0  0  0  0  0  0  0  0  0  0
   -4.8193   -4.1535   -6.5935 H   0  0  0  0  0  0  0  0  0  0  0  0
   -6.3713   -5.1527   -8.2073 H   0  0  0  0  0  0  0  0  0  0  0  0
   -6.8420   -0.4031   -6.8959 H   0  0  0  0  0  0  0  0  0  0  0  0
   -9.1673   -0.4740   -8.8213 H   0  0  0  0  0  0  0  0  0  0  0  0
  -10.0969   -2.4297  -10.2688 H   0  0  0  0  0  0  0  0  0  0  0  0
   -9.2426   -4.7637  -10.9818 H   0  0  0  0  0  0  0  0  0  0  0  0
   -7.7669   -5.4005  -10.2169 H   0  0  0  0  0  0  0  0  0  0  0  0
    4.8622   -5.8244   -1.3715 H   0  0  0  0  0  0  0  0  0  0  0  0
    5.4269   -8.1024   -2.1061 H   0  0  0  0  0  0  0  0  0  0  0  0
    6.2283   -9.7625   -0.4770 H   0  0  0  0  0  0  0  0  0  0  0  0
    6.4700   -9.1560    1.8949 H   0  0  0  0  0  0  0  0  0  0  0  0
    5.9231   -6.8801    2.6494 H   0  0  0  0  0  0  0  0  0  0  0  0
  1  2  1  0  0  0  0
  1 40  1  0  0  0  0
  1 41  1  0  0  0  0
  1 42  1  0  0  0  0
  2  3  1  0  0  0  0
  2 43  1  0  0  0  0
  2 44  1  0  0  0  0
  3  4  1  0  0  0  0
  3 45  1  0  0  0  0
  3 46  1  0  0  0  0
  4 13  2  0  0  0  0
  4  5  1  0  0  0  0
  5 10  2  0  0  0  0
  5  6  1  0  0  0  0
  6  7  2  0  0  0  0
  6 47  1  0  0  0  0
  7  8  1  0  0  0  0
  7 48  1  0  0  0  0
  8  9  2  0  0  0  0
  8 32  1  0  0  0  0
  9 10  1  0  0  0  0
  9 49  1  0  0  0  0
 10 11  1  0  0  0  0
 11 12  2  0  0  0  0
 11 50  1  0  0  0  0
 12 13  1  0  0  0  0
 12 51  1  0  0  0  0
 13 14  1  0  0  0  0
 14 15  1  0  0  0  0
 15 16  1  0  0  0  0
 15 52  1  0  0  0  0
 15 53  1  0  0  0  0
 16 17  1  0  0  0  0
 16 54  1  0  0  0  0
 16 55  1  0  0  0  0
 17 18  1  0  0  0  0
 17 56  1  0  0  0  0
 17 57  1  0  0  0  0
 18 19  1  0  0  0  0
 19 24  2  0  0  0  0
 19 20  1  0  0  0  0
 20 21  2  0  0  0  0
 20 58  1  0  0  0  0
 21 22  1  0  0  0  0
 21 59  1  0  0  0  0
 22 27  1  0  0  0  0
 22 23  2  0  0  0  0
 23 24  1  0  0  0  0
 23 25  1  0  0  0  0
 24 60  1  0  0  0  0
 25 26  2  0  0  0  0
 25 61  1  0  0  0  0
 26 27  1  0  0  0  0
 26 62  1  0  0  0  0
 27 28  1  0  0  0  0
 28 29  1  0  0  0  0
 28 63  1  0  0  0  0
 28 64  1  0  0  0  0
 29 30  2  0  0  0  0
 29 31  1  0  0  0  0
 32 33  2  0  0  0  0
 32 34  1  0  0  0  0
 34 39  2  0  0  0  0
 34 35  1  0  0  0  0
 35 36  2  0  0  0  0
 35 65  1  0  0  0  0
 36 37  1  0  0  0  0
 36 66  1  0  0  0  0
 37 38  2  0  0  0  0
 37 67  1  0  0  0  0
 38 39  1  0  0  0  0
 38 68  1  0  0  0  0
 39 69  1  0  0  0  0
M  CHG  1  31  -1
M  END
$$$$
