CHEMBL234588
 OpenBabel05272217113D

 51 54  0  0  0  0  0  0  0  0999 V2000
   -0.0167    1.3779    0.0096 C   0  0  0  0  0  0  0  0  0  0  0  0
    1.1711    2.0854    0.0021 C   0  0  0  0  0  0  0  0  0  0  0  0
    2.3773    1.4107   -0.0130 C   0  0  0  0  0  0  0  0  0  0  0  0
    2.3960    0.0283   -0.0201 C   0  0  0  0  0  0  0  0  0  0  0  0
    1.2086   -0.6790   -0.0117 C   0  0  0  0  0  0  0  0  0  0  0  0
    0.0021   -0.0041    0.0020 C   0  0  0  0  0  0  0  0  0  0  0  0
    1.2291   -2.1858   -0.0204 C   0  0  0  0  0  0  0  0  0  0  0  0
    1.2497   -2.6697    1.3240 O   0  0  0  0  0  0  0  0  0  0  0  0
    1.2698   -4.0183    1.4943 C   0  0  0  0  0  0  0  0  0  0  0  0
    1.2757   -4.8664    0.3891 C   0  0  0  0  0  0  0  0  0  0  0  0
    1.2957   -6.2175    0.5320 C   0  0  0  0  0  0  0  0  0  0  0  0
    1.3118   -6.8107    1.8168 C   0  0  0  0  0  0  0  0  0  0  0  0
    1.3060   -5.9315    2.9211 C   0  0  0  0  0  0  0  0  0  0  0  0
    1.2905   -4.5617    2.7682 C   0  0  0  0  0  0  0  0  0  0  0  0
    1.3292   -7.0205    4.3216 S   0  0  0  0  0  0  0  0  0  0  0  0
    1.3460   -8.5803    3.4589 C   0  0  0  0  0  0  0  0  0  0  0  0
    1.3335   -8.2241    2.1669 C   0  0  0  0  0  0  0  0  0  0  0  0
    1.3424   -9.2755    1.0874 C   0  0  0  0  0  0  0  0  0  0  0  0
    2.7590   -9.5175    0.6335 C   0  0  0  0  0  0  0  0  0  0  0  0
    3.6762   -8.8939    1.1397 O   0  0  0  0  0  0  0  0  0  0  0  0
    2.9877  -10.3368   -0.2399 O   0  5  0  0  0  0  0  0  0  0  0  0
    3.6720    2.1819   -0.0222 C   0  0  0  0  0  0  0  0  0  0  0  0
    4.0945    2.4194    1.3220 O   0  0  0  0  0  0  0  0  0  0  0  0
    5.2538    3.1080    1.4918 C   0  0  0  0  0  0  0  0  0  0  0  0
    5.9669    3.5512    0.3874 C   0  0  0  0  0  0  0  0  0  0  0  0
    7.1448    4.2514    0.5627 C   0  0  0  0  0  0  0  0  0  0  0  0
    7.6133    4.5103    1.8375 C   0  0  0  0  0  0  0  0  0  0  0  0
    6.9047    4.0693    2.9399 C   0  0  0  0  0  0  0  0  0  0  0  0
    5.7231    3.3740    2.7700 C   0  0  0  0  0  0  0  0  0  0  0  0
    8.8988    5.2739    2.0258 C   0  0  0  0  0  0  0  0  0  0  0  0
    8.6210    6.6429    2.1023 F   0  0  0  0  0  0  0  0  0  0  0  0
    9.5198    4.8572    3.2081 F   0  0  0  0  0  0  0  0  0  0  0  0
    9.7489    5.0305    0.9417 F   0  0  0  0  0  0  0  0  0  0  0  0
   -0.9591    1.9051    0.0259 H   0  0  0  0  0  0  0  0  0  0  0  0
    1.1565    3.1653    0.0076 H   0  0  0  0  0  0  0  0  0  0  0  0
    3.3385   -0.4989   -0.0326 H   0  0  0  0  0  0  0  0  0  0  0  0
   -0.9258   -0.5567    0.0079 H   0  0  0  0  0  0  0  0  0  0  0  0
    0.3388   -2.5583   -0.5270 H   0  0  0  0  0  0  0  0  0  0  0  0
    2.1185   -2.5341   -0.5456 H   0  0  0  0  0  0  0  0  0  0  0  0
    1.2637   -4.4405   -0.6033 H   0  0  0  0  0  0  0  0  0  0  0  0
    1.2990   -6.8466   -0.3459 H   0  0  0  0  0  0  0  0  0  0  0  0
    1.2903   -3.9173    3.6349 H   0  0  0  0  0  0  0  0  0  0  0  0
    1.3625   -9.5757    3.8776 H   0  0  0  0  0  0  0  0  0  0  0  0
    0.9232  -10.2022    1.4793 H   0  0  0  0  0  0  0  0  0  0  0  0
    0.7436   -8.9344    0.2430 H   0  0  0  0  0  0  0  0  0  0  0  0
    4.4344    1.6057   -0.5463 H   0  0  0  0  0  0  0  0  0  0  0  0
    3.5236    3.1349   -0.5302 H   0  0  0  0  0  0  0  0  0  0  0  0
    5.6017    3.3486   -0.6086 H   0  0  0  0  0  0  0  0  0  0  0  0
    7.7003    4.5965   -0.2968 H   0  0  0  0  0  0  0  0  0  0  0  0
    7.2730    4.2725    3.9346 H   0  0  0  0  0  0  0  0  0  0  0  0
    5.1677    3.0337    3.6314 H   0  0  0  0  0  0  0  0  0  0  0  0
  1  6  2  0  0  0  0
  1  2  1  0  0  0  0
  1 34  1  0  0  0  0
  2  3  2  0  0  0  0
  2 35  1  0  0  0  0
  3  4  1  0  0  0  0
  3 22  1  0  0  0  0
  4  5  2  0  0  0  0
  4 36  1  0  0  0  0
  5  6  1  0  0  0  0
  5  7  1  0  0  0  0
  6 37  1  0  0  0  0
  7  8  1  0  0  0  0
  7 38  1  0  0  0  0
  7 39  1  0  0  0  0
  8  9  1  0  0  0  0
  9 14  2  0  0  0  0
  9 10  1  0  0  0  0
 10 11  2  0  0  0  0
 10 40  1  0  0  0  0
 11 12  1  0  0  0  0
 11 41  1  0  0  0  0
 12 17  1  0  0  0  0
 12 13  2  0  0  0  0
 13 14  1  0  0  0  0
 13 15  1  0  0  0  0
 14 42  1  0  0  0  0
 15 16  1  0  0  0  0
 16 17  2  0  0  0  0
 16 43  1  0  0  0  0
 17 18  1  0  0  0  0
 18 19  1  0  0  0  0
 18 44  1  0  0  0  0
 18 45  1  0  0  0  0
 19 20  2  0  0  0  0
 19 21  1  0  0  0  0
 22 23  1  0  0  0  0
 22 46  1  0  0  0  0
 22 47  1  0  0  0  0
 23 24  1  0  0  0  0
 24 29  2  0  0  0  0
 24 25  1  0  0  0  0
 25 26  2  0  0  0  0
 25 48  1  0  0  0  0
 26 27  1  0  0  0  0
 26 49  1  0  0  0  0
 27 28  2  0  0  0  0
 27 30  1  0  0  0  0
 28 29  1  0  0  0  0
 28 50  1  0  0  0  0
 29 51  1  0  0  0  0
 30 31  1  0  0  0  0
 30 32  1  0  0  0  0
 30 33  1  0  0  0  0
M  CHG  1  21  -1
M  END
$$$$
