CHEMBL1079766
 OpenBabel05272217113D

 56 58  0  0  0  0  0  0  0  0999 V2000
   -0.0187    1.5258    0.0104 C   0  0  0  0  0  0  0  0  0  0  0  0
    0.0021   -0.0041    0.0020 C   0  0  0  0  0  0  0  0  0  0  0  0
    0.7182   -0.4975   -1.2568 C   0  0  0  0  0  0  0  0  0  0  0  0
    0.7390   -2.0273   -1.2652 C   0  0  0  0  0  0  0  0  0  0  0  0
    1.4078   -2.4882   -2.4409 O   0  0  0  0  0  0  0  0  0  0  0  0
    1.5136   -3.8326   -2.6033 C   0  0  0  0  0  0  0  0  0  0  0  0
    0.9779   -4.6899   -1.6506 C   0  0  0  0  0  0  0  0  0  0  0  0
    1.0835   -6.0545   -1.8123 C   0  0  0  0  0  0  0  0  0  0  0  0
    1.7293   -6.5746   -2.9344 C   0  0  0  0  0  0  0  0  0  0  0  0
    2.2661   -5.7109   -3.8891 C   0  0  0  0  0  0  0  0  0  0  0  0
    2.1520   -4.3469   -3.7241 C   0  0  0  0  0  0  0  0  0  0  0  0
    2.7263   -3.4130   -4.7581 C   0  0  0  0  0  0  0  0  0  0  0  0
    4.0221   -2.9098   -4.2957 N   0  0  0  0  0  0  0  0  0  0  0  0
    4.7249   -2.0529   -5.0627 C   0  0  0  0  0  0  0  0  0  0  0  0
    4.2835   -1.6976   -6.1382 O   0  0  0  0  0  0  0  0  0  0  0  0
    6.0312   -1.5456   -4.5965 C   0  0  0  0  0  0  0  0  0  0  0  0
    6.5443   -1.9560   -3.3640 C   0  0  0  0  0  0  0  0  0  0  0  0
    7.7644   -1.4791   -2.9349 C   0  0  0  0  0  0  0  0  0  0  0  0
    8.4826   -0.5944   -3.7215 C   0  0  0  0  0  0  0  0  0  0  0  0
    7.9832   -0.1819   -4.9423 C   0  0  0  0  0  0  0  0  0  0  0  0
    6.7633   -0.6565   -5.3894 C   0  0  0  0  0  0  0  0  0  0  0  0
    6.2778   -0.2575   -6.5853 F   0  0  0  0  0  0  0  0  0  0  0  0
    9.8153   -0.0782   -3.2436 C   0  0  0  0  0  0  0  0  0  0  0  0
   10.8317   -0.9323   -3.6848 F   0  0  0  0  0  0  0  0  0  0  0  0
   10.0294    1.2055   -3.7569 F   0  0  0  0  0  0  0  0  0  0  0  0
    9.8220   -0.0285   -1.8455 F   0  0  0  0  0  0  0  0  0  0  0  0
    1.8451   -8.0410   -3.1112 C   0  0  0  0  0  0  0  0  0  0  0  0
    1.3052   -8.9138   -2.1617 C   0  0  0  0  0  0  0  0  0  0  0  0
    1.4376  -10.2741   -2.3690 C   0  0  0  0  0  0  0  0  0  0  0  0
    2.1008  -10.7272   -3.5107 C   0  0  0  0  0  0  0  0  0  0  0  0
    2.6019   -9.8684   -4.3927 N   0  0  0  0  0  0  0  0  0  0  0  0
    2.4909   -8.5706   -4.2332 C   0  0  0  0  0  0  0  0  0  0  0  0
    2.2480  -12.1788   -3.7410 C   0  0  0  0  0  0  0  0  0  0  0  0
    1.7902  -12.9754   -2.9341 O   0  0  0  0  0  0  0  0  0  0  0  0
    2.8276  -12.5839   -4.7386 O   0  5  0  0  0  0  0  0  0  0  0  0
    1.0039    1.9031    0.0027 H   0  0  0  0  0  0  0  0  0  0  0  0
   -0.5459    1.8868   -0.8726 H   0  0  0  0  0  0  0  0  0  0  0  0
   -0.5289    1.8773    0.9072 H   0  0  0  0  0  0  0  0  0  0  0  0
    0.5293   -0.3651    0.8851 H   0  0  0  0  0  0  0  0  0  0  0  0
   -1.0205   -0.3814    0.0098 H   0  0  0  0  0  0  0  0  0  0  0  0
    0.1910   -0.1364   -2.1398 H   0  0  0  0  0  0  0  0  0  0  0  0
    1.7408   -0.1202   -1.2645 H   0  0  0  0  0  0  0  0  0  0  0  0
    1.2661   -2.3884   -0.3821 H   0  0  0  0  0  0  0  0  0  0  0  0
   -0.2836   -2.4046   -1.2575 H   0  0  0  0  0  0  0  0  0  0  0  0
    0.4784   -4.2867   -0.7821 H   0  0  0  0  0  0  0  0  0  0  0  0
    0.6671   -6.7206   -1.0711 H   0  0  0  0  0  0  0  0  0  0  0  0
    2.7666   -6.1103   -4.7588 H   0  0  0  0  0  0  0  0  0  0  0  0
    2.8590   -3.9490   -5.6979 H   0  0  0  0  0  0  0  0  0  0  0  0
    2.0447   -2.5761   -4.9102 H   0  0  0  0  0  0  0  0  0  0  0  0
    4.3743   -3.1933   -3.4375 H   0  0  0  0  0  0  0  0  0  0  0  0
    5.9859   -2.6455   -2.7482 H   0  0  0  0  0  0  0  0  0  0  0  0
    8.1613   -1.7964   -1.9819 H   0  0  0  0  0  0  0  0  0  0  0  0
    8.5485    0.5089   -5.5503 H   0  0  0  0  0  0  0  0  0  0  0  0
    0.7973   -8.5344   -1.2873 H   0  0  0  0  0  0  0  0  0  0  0  0
    1.0332  -10.9776   -1.6563 H   0  0  0  0  0  0  0  0  0  0  0  0
    2.9067   -7.9040   -4.9742 H   0  0  0  0  0  0  0  0  0  0  0  0
  1  2  1  0  0  0  0
  1 36  1  0  0  0  0
  1 37  1  0  0  0  0
  1 38  1  0  0  0  0
  2  3  1  0  0  0  0
  2 39  1  0  0  0  0
  2 40  1  0  0  0  0
  3  4  1  0  0  0  0
  3 41  1  0  0  0  0
  3 42  1  0  0  0  0
  4  5  1  0  0  0  0
  4 43  1  0  0  0  0
  4 44  1  0  0  0  0
  5  6  1  0  0  0  0
  6 11  2  0  0  0  0
  6  7  1  0  0  0  0
  7  8  2  0  0  0  0
  7 45  1  0  0  0  0
  8  9  1  0  0  0  0
  8 46  1  0  0  0  0
  9 10  2  0  0  0  0
  9 27  1  0  0  0  0
 10 11  1  0  0  0  0
 10 47  1  0  0  0  0
 11 12  1  0  0  0  0
 12 13  1  0  0  0  0
 12 48  1  0  0  0  0
 12 49  1  0  0  0  0
 13 14  1  0  0  0  0
 13 50  1  0  0  0  0
 14 15  2  0  0  0  0
 14 16  1  0  0  0  0
 16 21  2  0  0  0  0
 16 17  1  0  0  0  0
 17 18  2  0  0  0  0
 17 51  1  0  0  0  0
 18 19  1  0  0  0  0
 18 52  1  0  0  0  0
 19 20  2  0  0  0  0
 19 23  1  0  0  0  0
 20 21  1  0  0  0  0
 20 53  1  0  0  0  0
 21 22  1  0  0  0  0
 23 24  1  0  0  0  0
 23 25  1  0  0  0  0
 23 26  1  0  0  0  0
 27 32  2  0  0  0  0
 27 28  1  0  0  0  0
 28 29  2  0  0  0  0
 28 54  1  0  0  0  0
 29 30  1  0  0  0  0
 29 55  1  0  0  0  0
 30 31  2  0  0  0  0
 30 33  1  0  0  0  0
 31 32  1  0  0  0  0
 32 56  1  0  0  0  0
 33 34  2  0  0  0  0
 33 35  1  0  0  0  0
M  CHG  1  35  -1
M  END
$$$$
