CHEMBL278994
 OpenBabel05272217113D

 60 63  0  0  0  0  0  0  0  0999 V2000
   -0.0187    1.5258    0.0104 C   0  0  0  0  0  0  0  0  0  0  0  0
    0.0021   -0.0041    0.0020 C   0  0  0  0  0  0  0  0  0  0  0  0
    0.7421   -0.5109    1.2415 C   0  0  0  0  0  0  0  0  0  0  0  0
    0.7625   -2.0177    1.2333 C   0  0  0  0  0  0  0  0  0  0  0  0
   -0.2622   -2.7274    1.8330 C   0  0  0  0  0  0  0  0  0  0  0  0
   -0.2540   -4.1189    1.8315 C   0  0  0  0  0  0  0  0  0  0  0  0
    0.7782   -4.8047    1.2302 C   0  0  0  0  0  0  0  0  0  0  0  0
    1.8138   -4.0993    0.6236 C   0  0  0  0  0  0  0  0  0  0  0  0
    1.8073   -2.6955    0.6185 C   0  0  0  0  0  0  0  0  0  0  0  0
    2.9140   -2.2868   -0.0352 O   0  0  0  0  0  0  0  0  0  0  0  0
    3.6401   -3.3342   -0.4612 C   0  0  0  0  0  0  0  0  0  0  0  0
    3.0420   -4.4901   -0.0933 C   0  0  0  0  0  0  0  0  0  0  0  0
    3.5163   -5.8679   -0.3673 C   0  0  0  0  0  0  0  0  0  0  0  0
    3.5794   -6.8041    0.6637 C   0  0  0  0  0  0  0  0  0  0  0  0
    4.0217   -8.0850    0.4028 C   0  0  0  0  0  0  0  0  0  0  0  0
    4.4021   -8.4406   -0.8788 C   0  0  0  0  0  0  0  0  0  0  0  0
    4.3420   -7.5157   -1.9057 C   0  0  0  0  0  0  0  0  0  0  0  0
    3.8955   -6.2337   -1.6579 C   0  0  0  0  0  0  0  0  0  0  0  0
   -1.2854   -2.0601    2.4291 O   0  0  0  0  0  0  0  0  0  0  0  0
   -2.3126   -2.8507    3.0304 C   0  0  0  0  0  0  0  0  0  0  0  0
   -3.3696   -1.9314    3.6457 C   0  0  0  0  0  0  0  0  0  0  0  0
   -4.4694   -2.7779    4.2895 C   0  0  0  0  0  0  0  0  0  0  0  0
   -5.7226   -1.6879    5.0190 S   0  0  0  0  0  0  0  0  0  0  0  0
   -6.9030   -2.7983    5.7105 C   0  0  0  0  0  0  0  0  0  0  0  0
   -6.7115   -4.1707    5.6082 C   0  0  0  0  0  0  0  0  0  0  0  0
   -7.6384   -5.0382    6.1516 C   0  0  0  0  0  0  0  0  0  0  0  0
   -8.7569   -4.5429    6.7970 C   0  0  0  0  0  0  0  0  0  0  0  0
   -8.9519   -3.1778    6.9008 C   0  0  0  0  0  0  0  0  0  0  0  0
   -8.0256   -2.3034    6.3649 C   0  0  0  0  0  0  0  0  0  0  0  0
   -8.2668   -0.5897    6.5023 Cl  0  0  0  0  0  0  0  0  0  0  0  0
   -9.7661   -5.4933    7.3882 C   0  0  0  0  0  0  0  0  0  0  0  0
   -9.3898   -5.8023    8.8144 C   0  0  0  0  0  0  0  0  0  0  0  0
   -8.3944   -5.2975    9.3052 O   0  0  0  0  0  0  0  0  0  0  0  0
  -10.0807   -6.5570    9.4773 O   0  5  0  0  0  0  0  0  0  0  0  0
    1.0039    1.9031    0.0027 H   0  0  0  0  0  0  0  0  0  0  0  0
   -0.5459    1.8868   -0.8726 H   0  0  0  0  0  0  0  0  0  0  0  0
   -0.5289    1.8773    0.9072 H   0  0  0  0  0  0  0  0  0  0  0  0
   -1.0205   -0.3814    0.0098 H   0  0  0  0  0  0  0  0  0  0  0  0
    0.5123   -0.3556   -0.8948 H   0  0  0  0  0  0  0  0  0  0  0  0
    1.7647   -0.1336    1.2338 H   0  0  0  0  0  0  0  0  0  0  0  0
    0.2319   -0.1594    2.1383 H   0  0  0  0  0  0  0  0  0  0  0  0
   -1.0590   -4.6627    2.3035 H   0  0  0  0  0  0  0  0  0  0  0  0
    0.7843   -5.8847    1.2297 H   0  0  0  0  0  0  0  0  0  0  0  0
    4.5681   -3.2634   -1.0091 H   0  0  0  0  0  0  0  0  0  0  0  0
    3.2830   -6.5274    1.6647 H   0  0  0  0  0  0  0  0  0  0  0  0
    4.0713   -8.8110    1.2008 H   0  0  0  0  0  0  0  0  0  0  0  0
    4.7476   -9.4442   -1.0783 H   0  0  0  0  0  0  0  0  0  0  0  0
    4.6406   -7.7989   -2.9042 H   0  0  0  0  0  0  0  0  0  0  0  0
    3.8444   -5.5138   -2.4614 H   0  0  0  0  0  0  0  0  0  0  0  0
   -2.7767   -3.4813    2.2720 H   0  0  0  0  0  0  0  0  0  0  0  0
   -1.8792   -3.4782    3.8092 H   0  0  0  0  0  0  0  0  0  0  0  0
   -2.9056   -1.3008    4.4041 H   0  0  0  0  0  0  0  0  0  0  0  0
   -3.8030   -1.3039    2.8669 H   0  0  0  0  0  0  0  0  0  0  0  0
   -4.9335   -3.4085    3.5312 H   0  0  0  0  0  0  0  0  0  0  0  0
   -4.0360   -3.4054    5.0683 H   0  0  0  0  0  0  0  0  0  0  0  0
   -5.8389   -4.5586    5.1038 H   0  0  0  0  0  0  0  0  0  0  0  0
   -7.4899   -6.1050    6.0723 H   0  0  0  0  0  0  0  0  0  0  0  0
   -9.8266   -2.7945    7.4052 H   0  0  0  0  0  0  0  0  0  0  0  0
  -10.7546   -5.0346    7.3644 H   0  0  0  0  0  0  0  0  0  0  0  0
   -9.7796   -6.4159    6.8079 H   0  0  0  0  0  0  0  0  0  0  0  0
  1  2  1  0  0  0  0
  1 35  1  0  0  0  0
  1 36  1  0  0  0  0
  1 37  1  0  0  0  0
  2  3  1  0  0  0  0
  2 38  1  0  0  0  0
  2 39  1  0  0  0  0
  3  4  1  0  0  0  0
  3 40  1  0  0  0  0
  3 41  1  0  0  0  0
  4  9  2  0  0  0  0
  4  5  1  0  0  0  0
  5  6  2  0  0  0  0
  5 19  1  0  0  0  0
  6  7  1  0  0  0  0
  6 42  1  0  0  0  0
  7  8  2  0  0  0  0
  7 43  1  0  0  0  0
  8 12  1  0  0  0  0
  8  9  1  0  0  0  0
  9 10  1  0  0  0  0
 10 11  1  0  0  0  0
 11 12  2  0  0  0  0
 11 44  1  0  0  0  0
 12 13  1  0  0  0  0
 13 18  2  0  0  0  0
 13 14  1  0  0  0  0
 14 15  2  0  0  0  0
 14 45  1  0  0  0  0
 15 16  1  0  0  0  0
 15 46  1  0  0  0  0
 16 17  2  0  0  0  0
 16 47  1  0  0  0  0
 17 18  1  0  0  0  0
 17 48  1  0  0  0  0
 18 49  1  0  0  0  0
 19 20  1  0  0  0  0
 20 21  1  0  0  0  0
 20 50  1  0  0  0  0
 20 51  1  0  0  0  0
 21 22  1  0  0  0  0
 21 52  1  0  0  0  0
 21 53  1  0  0  0  0
 22 23  1  0  0  0  0
 22 54  1  0  0  0  0
 22 55  1  0  0  0  0
 23 24  1  0  0  0  0
 24 29  2  0  0  0  0
 24 25  1  0  0  0  0
 25 26  2  0  0  0  0
 25 56  1  0  0  0  0
 26 27  1  0  0  0  0
 26 57  1  0  0  0  0
 27 28  2  0  0  0  0
 27 31  1  0  0  0  0
 28 29  1  0  0  0  0
 28 58  1  0  0  0  0
 29 30  1  0  0  0  0
 31 32  1  0  0  0  0
 31 59  1  0  0  0  0
 31 60  1  0  0  0  0
 32 33  2  0  0  0  0
 32 34  1  0  0  0  0
M  CHG  1  34  -1
M  END
$$$$
