CHEMBL1075732
 OpenBabel05272217113D

 71 74  0  0  0  0  0  0  0  0999 V2000
   -0.4870    1.2967    0.2281 C   0  0  0  0  0  0  0  0  0  0  0  0
   -0.4337   -0.2093    0.2423 C   0  0  0  0  0  0  0  0  0  0  0  0
   -0.4199   -0.9113   -0.9475 C   0  0  0  0  0  0  0  0  0  0  0  0
   -0.3704   -2.2971   -0.9344 C   0  0  0  0  0  0  0  0  0  0  0  0
   -0.3348   -2.9785    0.2734 C   0  0  0  0  0  0  0  0  0  0  0  0
   -0.3487   -2.2767    1.4628 C   0  0  0  0  0  0  0  0  0  0  0  0
   -0.3929   -0.8903    1.4497 C   0  0  0  0  0  0  0  0  0  0  0  0
   -0.4009   -0.1991    2.6207 O   0  0  0  0  0  0  0  0  0  0  0  0
   -0.3571   -0.9650    3.8264 C   0  0  0  0  0  0  0  0  0  0  0  0
   -0.3732   -0.0357    5.0126 C   0  0  0  0  0  0  0  0  0  0  0  0
   -0.4181    1.1706    4.8415 O   0  0  0  0  0  0  0  0  0  0  0  0
   -0.3414   -0.4902    6.1435 O   0  5  0  0  0  0  0  0  0  0  0  0
   -0.3572   -2.9881   -2.1055 O   0  0  0  0  0  0  0  0  0  0  0  0
   -0.3056   -4.4134   -2.0173 C   0  0  0  0  0  0  0  0  0  0  0  0
   -0.2981   -5.0026   -3.4043 C   0  0  0  0  0  0  0  0  0  0  0  0
    0.7682   -5.2626   -4.1022 N   0  0  0  0  0  0  0  0  0  0  0  0
    0.3963   -5.7818   -5.2925 C   0  0  0  0  0  0  0  0  0  0  0  0
   -0.9847   -5.8315   -5.2968 C   0  0  0  0  0  0  0  0  0  0  0  0
   -1.3891   -5.3440   -4.1041 O   0  0  0  0  0  0  0  0  0  0  0  0
   -1.8471   -6.3251   -6.3871 C   0  0  0  0  0  0  0  0  0  0  0  0
   -1.5716   -7.5513   -6.9981 C   0  0  0  0  0  0  0  0  0  0  0  0
   -2.3799   -8.0084   -8.0163 C   0  0  0  0  0  0  0  0  0  0  0  0
   -3.4669   -7.2522   -8.4357 C   0  0  0  0  0  0  0  0  0  0  0  0
   -3.7446   -6.0329   -7.8313 C   0  0  0  0  0  0  0  0  0  0  0  0
   -2.9455   -5.5707   -6.8081 C   0  0  0  0  0  0  0  0  0  0  0  0
   -4.2605   -7.7064   -9.4404 O   0  0  0  0  0  0  0  0  0  0  0  0
   -5.3612   -6.8789   -9.8222 C   0  0  0  0  0  0  0  0  0  0  0  0
   -4.8833   -5.6367  -10.2530 F   0  0  0  0  0  0  0  0  0  0  0  0
   -6.0676   -7.4930  -10.8621 F   0  0  0  0  0  0  0  0  0  0  0  0
   -6.2104   -6.6971   -8.7254 F   0  0  0  0  0  0  0  0  0  0  0  0
    1.2959   -6.2143   -6.3837 C   0  0  0  0  0  0  0  0  0  0  0  0
    0.9867   -5.9003   -7.7095 C   0  0  0  0  0  0  0  0  0  0  0  0
    1.8175   -6.2992   -8.7177 C   0  0  0  0  0  0  0  0  0  0  0  0
    2.9774   -7.0218   -8.4228 C   0  0  0  0  0  0  0  0  0  0  0  0
    3.2864   -7.3359   -7.0959 C   0  0  0  0  0  0  0  0  0  0  0  0
    2.4577   -6.9319   -6.0879 C   0  0  0  0  0  0  0  0  0  0  0  0
    3.8752   -7.4535   -9.5117 C   0  0  0  0  0  0  0  0  0  0  0  0
    3.4193   -7.7123  -10.6088 O   0  0  0  0  0  0  0  0  0  0  0  0
    5.2002   -7.5607   -9.2901 N   0  0  0  0  0  0  0  0  0  0  0  0
    5.7645   -7.1399   -8.0053 C   0  0  0  0  0  0  0  0  0  0  0  0
    6.0764   -8.0982  -10.3340 C   0  0  0  0  0  0  0  0  0  0  0  0
    7.1200   -7.0463  -10.7154 C   0  0  0  0  0  0  0  0  0  0  0  0
    6.7823   -9.3512   -9.8122 C   0  0  0  0  0  0  0  0  0  0  0  0
    0.5271    1.6960    0.2103 H   0  0  0  0  0  0  0  0  0  0  0  0
   -1.0254    1.6329   -0.6580 H   0  0  0  0  0  0  0  0  0  0  0  0
   -1.0012    1.6506    1.1217 H   0  0  0  0  0  0  0  0  0  0  0  0
   -0.4479   -0.3808   -1.8878 H   0  0  0  0  0  0  0  0  0  0  0  0
   -0.2967   -4.0578    0.2836 H   0  0  0  0  0  0  0  0  0  0  0  0
   -0.3218   -2.8072    2.4031 H   0  0  0  0  0  0  0  0  0  0  0  0
   -1.2238   -1.6244    3.8696 H   0  0  0  0  0  0  0  0  0  0  0  0
    0.5548   -1.5618    3.8447 H   0  0  0  0  0  0  0  0  0  0  0  0
    0.6008   -4.7122   -1.4906 H   0  0  0  0  0  0  0  0  0  0  0  0
   -1.1780   -4.7756   -1.4733 H   0  0  0  0  0  0  0  0  0  0  0  0
   -0.7262   -8.1396   -6.6732 H   0  0  0  0  0  0  0  0  0  0  0  0
   -2.1677   -8.9559   -8.4891 H   0  0  0  0  0  0  0  0  0  0  0  0
   -4.5907   -5.4481   -8.1608 H   0  0  0  0  0  0  0  0  0  0  0  0
   -3.1650   -4.6248   -6.3355 H   0  0  0  0  0  0  0  0  0  0  0  0
    0.0905   -5.3423   -7.9373 H   0  0  0  0  0  0  0  0  0  0  0  0
    1.5782   -6.0567   -9.7426 H   0  0  0  0  0  0  0  0  0  0  0  0
    4.1821   -7.8944   -6.8675 H   0  0  0  0  0  0  0  0  0  0  0  0
    2.6984   -7.1709   -5.0626 H   0  0  0  0  0  0  0  0  0  0  0  0
    5.7986   -7.9923   -7.3268 H   0  0  0  0  0  0  0  0  0  0  0  0
    6.7735   -6.7576   -8.1593 H   0  0  0  0  0  0  0  0  0  0  0  0
    5.1411   -6.3567   -7.5738 H   0  0  0  0  0  0  0  0  0  0  0  0
    5.4818   -8.3547  -11.2109 H   0  0  0  0  0  0  0  0  0  0  0  0
    7.7145   -6.7898   -9.8386 H   0  0  0  0  0  0  0  0  0  0  0  0
    7.7718   -7.4462  -11.4921 H   0  0  0  0  0  0  0  0  0  0  0  0
    6.6170   -6.1536  -11.0872 H   0  0  0  0  0  0  0  0  0  0  0  0
    6.0389  -10.1006   -9.5405 H   0  0  0  0  0  0  0  0  0  0  0  0
    7.4342   -9.7511  -10.5889 H   0  0  0  0  0  0  0  0  0  0  0  0
    7.3769   -9.0947   -8.9354 H   0  0  0  0  0  0  0  0  0  0  0  0
  1  2  1  0  0  0  0
  1 44  1  0  0  0  0
  1 45  1  0  0  0  0
  1 46  1  0  0  0  0
  2  7  2  0  0  0  0
  2  3  1  0  0  0  0
  3  4  2  0  0  0  0
  3 47  1  0  0  0  0
  4  5  1  0  0  0  0
  4 13  1  0  0  0  0
  5  6  2  0  0  0  0
  5 48  1  0  0  0  0
  6  7  1  0  0  0  0
  6 49  1  0  0  0  0
  7  8  1  0  0  0  0
  8  9  1  0  0  0  0
  9 10  1  0  0  0  0
  9 50  1  0  0  0  0
  9 51  1  0  0  0  0
 10 11  2  0  0  0  0
 10 12  1  0  0  0  0
 13 14  1  0  0  0  0
 14 15  1  0  0  0  0
 14 52  1  0  0  0  0
 14 53  1  0  0  0  0
 15 19  1  0  0  0  0
 15 16  2  0  0  0  0
 16 17  1  0  0  0  0
 17 18  2  0  0  0  0
 17 31  1  0  0  0  0
 18 19  1  0  0  0  0
 18 20  1  0  0  0  0
 20 25  2  0  0  0  0
 20 21  1  0  0  0  0
 21 22  2  0  0  0  0
 21 54  1  0  0  0  0
 22 23  1  0  0  0  0
 22 55  1  0  0  0  0
 23 24  2  0  0  0  0
 23 26  1  0  0  0  0
 24 25  1  0  0  0  0
 24 56  1  0  0  0  0
 25 57  1  0  0  0  0
 26 27  1  0  0  0  0
 27 28  1  0  0  0  0
 27 29  1  0  0  0  0
 27 30  1  0  0  0  0
 31 36  2  0  0  0  0
 31 32  1  0  0  0  0
 32 33  2  0  0  0  0
 32 58  1  0  0  0  0
 33 34  1  0  0  0  0
 33 59  1  0  0  0  0
 34 35  2  0  0  0  0
 34 37  1  0  0  0  0
 35 36  1  0  0  0  0
 35 60  1  0  0  0  0
 36 61  1  0  0  0  0
 37 38  2  0  0  0  0
 37 39  1  0  0  0  0
 39 40  1  0  0  0  0
 39 41  1  0  0  0  0
 40 62  1  0  0  0  0
 40 63  1  0  0  0  0
 40 64  1  0  0  0  0
 41 42  1  0  0  0  0
 41 43  1  0  0  0  0
 41 65  1  0  0  0  0
 42 66  1  0  0  0  0
 42 67  1  0  0  0  0
 42 68  1  0  0  0  0
 43 69  1  0  0  0  0
 43 70  1  0  0  0  0
 43 71  1  0  0  0  0
M  CHG  1  12  -1
M  END
$$$$
