CHEMBL218384
 OpenBabel05272217113D

 57 60  0  0  0  0  0  0  0  0999 V2000
   -0.0184    1.5028    0.0103 C   0  0  0  0  0  0  0  0  0  0  0  0
    0.0021   -0.0041    0.0020 C   0  0  0  0  0  0  0  0  0  0  0  0
    0.0058   -0.6889   -1.1955 C   0  0  0  0  0  0  0  0  0  0  0  0
    0.0240   -2.0723   -1.2049 C   0  0  0  0  0  0  0  0  0  0  0  0
    0.0391   -2.7790   -0.0150 C   0  0  0  0  0  0  0  0  0  0  0  0
    0.0361   -2.1076    1.1896 C   0  0  0  0  0  0  0  0  0  0  0  0
    0.0231   -0.7106    1.2068 C   0  0  0  0  0  0  0  0  0  0  0  0
    0.0254    0.0151    2.4917 C   0  0  0  0  0  0  0  0  0  0  0  0
    0.0508   -0.5591    3.7561 C   0  0  0  0  0  0  0  0  0  0  0  0
    0.0424    0.5514    4.7178 C   0  0  0  0  0  0  0  0  0  0  0  0
    0.0142    1.6614    4.0250 N   0  0  0  0  0  0  0  0  0  0  0  0
    0.0093    1.3473    2.6475 O   0  0  0  0  0  0  0  0  0  0  0  0
    0.0614    0.4363    6.1966 C   0  0  0  0  0  0  0  0  0  0  0  0
   -0.5999   -0.6178    6.8246 C   0  0  0  0  0  0  0  0  0  0  0  0
   -0.5790   -0.7199    8.2006 C   0  0  0  0  0  0  0  0  0  0  0  0
    0.0963    0.2216    8.9565 C   0  0  0  0  0  0  0  0  0  0  0  0
    0.7538    1.2699    8.3387 C   0  0  0  0  0  0  0  0  0  0  0  0
    0.7451    1.3782    6.9626 C   0  0  0  0  0  0  0  0  0  0  0  0
    1.4868    2.2918    9.1690 C   0  0  0  0  0  0  0  0  0  0  0  0
    2.9125    1.8468    9.3699 C   0  0  0  0  0  0  0  0  0  0  0  0
    3.2976    0.7970    8.8840 O   0  0  0  0  0  0  0  0  0  0  0  0
    3.6807    2.5364   10.0185 O   0  5  0  0  0  0  0  0  0  0  0  0
    0.0799   -1.9945    4.0701 C   0  0  0  0  0  0  0  0  0  0  0  0
    1.1452   -2.5702    4.1873 O   0  0  0  0  0  0  0  0  0  0  0  0
   -1.0738   -2.6733    4.2281 N   0  0  0  0  0  0  0  0  0  0  0  0
   -1.0448   -4.1041    4.5411 C   0  0  0  0  0  0  0  0  0  0  0  0
   -2.4769   -4.6276    4.6675 C   0  0  0  0  0  0  0  0  0  0  0  0
   -3.1329   -4.5307    3.4017 O   0  0  0  0  0  0  0  0  0  0  0  0
   -4.4222   -4.9575    3.3404 C   0  0  0  0  0  0  0  0  0  0  0  0
   -5.0442   -5.4536    4.4765 C   0  0  0  0  0  0  0  0  0  0  0  0
   -6.3545   -5.8869    4.4125 C   0  0  0  0  0  0  0  0  0  0  0  0
   -7.0469   -5.8264    3.2160 C   0  0  0  0  0  0  0  0  0  0  0  0
   -6.4291   -5.3320    2.0812 C   0  0  0  0  0  0  0  0  0  0  0  0
   -5.1198   -4.8920    2.1422 C   0  0  0  0  0  0  0  0  0  0  0  0
   -4.3468   -4.2649    0.7199 Cl  0  0  0  0  0  0  0  0  0  0  0  0
   -8.6931   -6.3722    3.1387 Cl  0  0  0  0  0  0  0  0  0  0  0  0
    1.0042    1.8801    0.0026 H   0  0  0  0  0  0  0  0  0  0  0  0
   -0.5455    1.8639   -0.8728 H   0  0  0  0  0  0  0  0  0  0  0  0
   -0.5286    1.8543    0.9071 H   0  0  0  0  0  0  0  0  0  0  0  0
   -0.0060   -0.1439   -2.1278 H   0  0  0  0  0  0  0  0  0  0  0  0
    0.0261   -2.6033   -2.1454 H   0  0  0  0  0  0  0  0  0  0  0  0
    0.0530   -3.8588   -0.0299 H   0  0  0  0  0  0  0  0  0  0  0  0
    0.0479   -2.6603    2.1173 H   0  0  0  0  0  0  0  0  0  0  0  0
   -1.1280   -1.3529    6.2355 H   0  0  0  0  0  0  0  0  0  0  0  0
   -1.0910   -1.5362    8.6883 H   0  0  0  0  0  0  0  0  0  0  0  0
    0.1098    0.1380   10.0332 H   0  0  0  0  0  0  0  0  0  0  0  0
    1.2632    2.1943    6.4809 H   0  0  0  0  0  0  0  0  0  0  0  0
    1.4752    3.2532    8.6554 H   0  0  0  0  0  0  0  0  0  0  0  0
    0.9973    2.3915   10.1378 H   0  0  0  0  0  0  0  0  0  0  0  0
   -1.9232   -2.2143    4.1347 H   0  0  0  0  0  0  0  0  0  0  0  0
   -0.5311   -4.6403    3.7432 H   0  0  0  0  0  0  0  0  0  0  0  0
   -0.5168   -4.2597    5.4819 H   0  0  0  0  0  0  0  0  0  0  0  0
   -2.4560   -5.6695    4.9871 H   0  0  0  0  0  0  0  0  0  0  0  0
   -3.0177   -4.0326    5.4035 H   0  0  0  0  0  0  0  0  0  0  0  0
   -4.5044   -5.5015    5.4107 H   0  0  0  0  0  0  0  0  0  0  0  0
   -6.8386   -6.2736    5.2971 H   0  0  0  0  0  0  0  0  0  0  0  0
   -6.9711   -5.2859    1.1482 H   0  0  0  0  0  0  0  0  0  0  0  0
  1  2  1  0  0  0  0
  1 37  1  0  0  0  0
  1 38  1  0  0  0  0
  1 39  1  0  0  0  0
  2  7  2  0  0  0  0
  2  3  1  0  0  0  0
  3  4  2  0  0  0  0
  3 40  1  0  0  0  0
  4  5  1  0  0  0  0
  4 41  1  0  0  0  0
  5  6  2  0  0  0  0
  5 42  1  0  0  0  0
  6  7  1  0  0  0  0
  6 43  1  0  0  0  0
  7  8  1  0  0  0  0
  8 12  1  0  0  0  0
  8  9  2  0  0  0  0
  9 10  1  0  0  0  0
  9 23  1  0  0  0  0
 10 11  2  0  0  0  0
 10 13  1  0  0  0  0
 11 12  1  0  0  0  0
 13 18  2  0  0  0  0
 13 14  1  0  0  0  0
 14 15  2  0  0  0  0
 14 44  1  0  0  0  0
 15 16  1  0  0  0  0
 15 45  1  0  0  0  0
 16 17  2  0  0  0  0
 16 46  1  0  0  0  0
 17 18  1  0  0  0  0
 17 19  1  0  0  0  0
 18 47  1  0  0  0  0
 19 20  1  0  0  0  0
 19 48  1  0  0  0  0
 19 49  1  0  0  0  0
 20 21  2  0  0  0  0
 20 22  1  0  0  0  0
 23 24  2  0  0  0  0
 23 25  1  0  0  0  0
 25 26  1  0  0  0  0
 25 50  1  0  0  0  0
 26 27  1  0  0  0  0
 26 51  1  0  0  0  0
 26 52  1  0  0  0  0
 27 28  1  0  0  0  0
 27 53  1  0  0  0  0
 27 54  1  0  0  0  0
 28 29  1  0  0  0  0
 29 34  2  0  0  0  0
 29 30  1  0  0  0  0
 30 31  2  0  0  0  0
 30 55  1  0  0  0  0
 31 32  1  0  0  0  0
 31 56  1  0  0  0  0
 32 33  2  0  0  0  0
 32 36  1  0  0  0  0
 33 34  1  0  0  0  0
 33 57  1  0  0  0  0
 34 35  1  0  0  0  0
M  CHG  1  22  -1
M  END
$$$$
