CHEMBL220893
 OpenBabel05272217113D

 59 63  0  0  1  0  0  0  0  0999 V2000
    1.0835    0.7134    0.3041 C   0  0  0  0  0  0  0  0  0  0  0  0
    2.1966    1.4922    0.1819 C   0  0  0  0  0  0  0  0  0  0  0  0
    3.4449    0.9098   -0.0618 C   0  0  0  0  0  0  0  0  0  0  0  0
    3.5657   -0.4692   -0.1822 C   0  0  0  0  0  0  0  0  0  0  0  0
    2.4391   -1.2715   -0.0596 C   0  0  0  0  0  0  0  0  0  0  0  0
    1.1875   -0.6751    0.1857 C   0  0  0  0  0  0  0  0  0  0  0  0
    0.2233   -1.7749    0.2599 C   0  0  0  0  0  0  0  0  0  0  0  0
    0.9091   -2.9129    0.0659 C   0  0  0  0  0  0  0  0  0  0  0  0
    2.2344   -2.6322   -0.1267 N   0  0  0  0  0  0  0  0  0  0  0  0
    2.9266   -3.2928   -0.2865 H   0  0  0  0  0  0  0  0  0  0  0  0
    4.6464    1.7692   -0.1928 C   0  0  0  0  0  0  0  0  0  0  0  0
    5.8922    1.1951   -0.4414 C   0  0  0  0  0  0  0  0  0  0  0  0
    7.0074    1.9970   -0.5632 C   0  0  0  0  0  0  0  0  0  0  0  0
    6.8905    3.3747   -0.4386 C   0  0  0  0  0  0  0  0  0  0  0  0
    5.6513    3.9496   -0.1910 C   0  0  0  0  0  0  0  0  0  0  0  0
    4.5314    3.1534   -0.0734 C   0  0  0  0  0  0  0  0  0  0  0  0
    7.9914    4.1622   -0.5587 O   0  0  0  0  0  0  0  0  0  0  0  0
    7.7993    5.5714   -0.4192 C   0  0  0  0  0  0  0  0  0  0  0  0
    9.1411    6.2878   -0.5843 C   0  0  0  0  0  0  0  0  0  0  0  0
    8.9355    7.7965   -0.4350 C   0  0  0  0  0  0  0  0  0  0  0  0
   10.1888    8.4656   -0.5892 O   0  0  0  0  0  0  0  0  0  0  0  0
   10.1818    9.8205   -0.4842 C   0  0  0  0  0  0  0  0  0  0  0  0
    8.9944   10.4927   -0.2323 C   0  0  0  0  0  0  0  0  0  0  0  0
    8.9925   11.8686   -0.1266 C   0  0  0  0  0  0  0  0  0  0  0  0
   10.1711   12.5823   -0.2714 C   0  0  0  0  0  0  0  0  0  0  0  0
   11.3555   11.9148   -0.5226 C   0  0  0  0  0  0  0  0  0  0  0  0
   11.3617   10.5343   -0.6229 C   0  0  0  0  0  0  0  0  0  0  0  0
   12.4895   12.9109   -0.6385 C   0  0  0  0  0  0  0  0  0  0  0  0
   11.8064   14.2759   -0.8669 C   0  0  0  0  0  0  0  0  0  0  0  0
   10.4289   14.0725   -0.2013 C   0  0  1  0  0  0  0  0  0  0  0  0
   10.4580   14.4028    0.8370 H   0  0  0  0  0  0  0  0  0  0  0  0
    9.3492   14.8348   -0.9720 C   0  0  0  0  0  0  0  0  0  0  0  0
    9.5423   16.3163   -0.7743 C   0  0  0  0  0  0  0  0  0  0  0  0
   10.3912   16.7223    0.0008 O   0  0  0  0  0  0  0  0  0  0  0  0
    8.8495   17.1088   -1.3896 O   0  5  0  0  0  0  0  0  0  0  0  0
    0.1234    1.1691    0.4967 H   0  0  0  0  0  0  0  0  0  0  0  0
    2.1136    2.5651    0.2735 H   0  0  0  0  0  0  0  0  0  0  0  0
    4.5312   -0.9149   -0.3707 H   0  0  0  0  0  0  0  0  0  0  0  0
   -0.8384   -1.6873    0.4375 H   0  0  0  0  0  0  0  0  0  0  0  0
    0.4784   -3.9033    0.0626 H   0  0  0  0  0  0  0  0  0  0  0  0
    5.9838    0.1233   -0.5382 H   0  0  0  0  0  0  0  0  0  0  0  0
    7.9729    1.5528   -0.7555 H   0  0  0  0  0  0  0  0  0  0  0  0
    5.5636    5.0216   -0.0941 H   0  0  0  0  0  0  0  0  0  0  0  0
    3.5669    3.6015    0.1148 H   0  0  0  0  0  0  0  0  0  0  0  0
    7.1046    5.9207   -1.1831 H   0  0  0  0  0  0  0  0  0  0  0  0
    7.3916    5.7866    0.5685 H   0  0  0  0  0  0  0  0  0  0  0  0
    9.8359    5.9384    0.1795 H   0  0  0  0  0  0  0  0  0  0  0  0
    9.5488    6.0726   -1.5720 H   0  0  0  0  0  0  0  0  0  0  0  0
    8.2408    8.1458   -1.1988 H   0  0  0  0  0  0  0  0  0  0  0  0
    8.5278    8.0117    0.5527 H   0  0  0  0  0  0  0  0  0  0  0  0
    8.0734    9.9401   -0.1196 H   0  0  0  0  0  0  0  0  0  0  0  0
    8.0680   12.3915    0.0695 H   0  0  0  0  0  0  0  0  0  0  0  0
   12.2877   10.0124   -0.8142 H   0  0  0  0  0  0  0  0  0  0  0  0
   13.0726   12.9291    0.2822 H   0  0  0  0  0  0  0  0  0  0  0  0
   13.1275   12.6607   -1.4862 H   0  0  0  0  0  0  0  0  0  0  0  0
   12.3610   15.0741   -0.3735 H   0  0  0  0  0  0  0  0  0  0  0  0
   11.6958   14.4805   -1.9318 H   0  0  0  0  0  0  0  0  0  0  0  0
    9.4238   14.5971   -2.0331 H   0  0  0  0  0  0  0  0  0  0  0  0
    8.3656   14.5442   -0.6028 H   0  0  0  0  0  0  0  0  0  0  0  0
  1  6  2  0  0  0  0
  1  2  1  0  0  0  0
  1 36  1  0  0  0  0
  2  3  2  0  0  0  0
  2 37  1  0  0  0  0
  3  4  1  0  0  0  0
  3 11  1  0  0  0  0
  4  5  2  0  0  0  0
  4 38  1  0  0  0  0
  5  9  1  0  0  0  0
  5  6  1  0  0  0  0
  6  7  1  0  0  0  0
  7  8  2  0  0  0  0
  7 39  1  0  0  0  0
  8  9  1  0  0  0  0
  8 40  1  0  0  0  0
  9 10  1  0  0  0  0
 11 16  2  0  0  0  0
 11 12  1  0  0  0  0
 12 13  2  0  0  0  0
 12 41  1  0  0  0  0
 13 14  1  0  0  0  0
 13 42  1  0  0  0  0
 14 15  2  0  0  0  0
 14 17  1  0  0  0  0
 15 16  1  0  0  0  0
 15 43  1  0  0  0  0
 16 44  1  0  0  0  0
 17 18  1  0  0  0  0
 18 19  1  0  0  0  0
 18 45  1  0  0  0  0
 18 46  1  0  0  0  0
 19 20  1  0  0  0  0
 19 47  1  0  0  0  0
 19 48  1  0  0  0  0
 20 21  1  0  0  0  0
 20 49  1  0  0  0  0
 20 50  1  0  0  0  0
 21 22  1  0  0  0  0
 22 27  2  0  0  0  0
 22 23  1  0  0  0  0
 23 24  2  0  0  0  0
 23 51  1  0  0  0  0
 24 25  1  0  0  0  0
 24 52  1  0  0  0  0
 25 30  1  0  0  0  0
 25 26  2  0  0  0  0
 26 27  1  0  0  0  0
 26 28  1  0  0  0  0
 27 53  1  0  0  0  0
 28 29  1  0  0  0  0
 28 54  1  0  0  0  0
 28 55  1  0  0  0  0
 29 30  1  0  0  0  0
 29 56  1  0  0  0  0
 29 57  1  0  0  0  0
 30 31  1  1  0  0  0
 30 32  1  0  0  0  0
 32 33  1  0  0  0  0
 32 58  1  0  0  0  0
 32 59  1  0  0  0  0
 33 34  2  0  0  0  0
 33 35  1  0  0  0  0
M  CHG  1  35  -1
M  END
$$$$
