CHEMBL401236
 OpenBabel05272217113D

 63 66  0  0  1  0  0  0  0  0999 V2000
    1.5263   -2.3674    1.3672 C   0  0  0  0  0  0  0  0  0  0  0  0
    0.8828   -2.5334    2.7454 C   0  0  0  0  0  0  0  0  0  0  0  0
   -0.5339   -3.0210    2.5828 C   0  0  0  0  0  0  0  0  0  0  0  0
   -1.5774   -2.1158    2.5632 C   0  0  0  0  0  0  0  0  0  0  0  0
   -2.8813   -2.5653    2.4135 C   0  0  0  0  0  0  0  0  0  0  0  0
   -3.1338   -3.9237    2.2838 C   0  0  0  0  0  0  0  0  0  0  0  0
   -2.0870   -4.8245    2.3040 C   0  0  0  0  0  0  0  0  0  0  0  0
   -0.7876   -4.3733    2.4477 C   0  0  0  0  0  0  0  0  0  0  0  0
    0.3532   -5.3578    2.4628 C   0  0  0  0  0  0  0  0  0  0  0  0
    0.6987   -5.7160    3.9096 C   0  0  0  0  0  0  0  0  0  0  0  0
    1.8395   -6.7006    3.9247 C   0  0  0  0  0  0  0  0  0  0  0  0
    2.3307   -7.0806    2.8755 O   0  0  0  0  0  0  0  0  0  0  0  0
    2.2712   -7.1171    4.9861 O   0  5  0  0  0  0  0  0  0  0  0  0
   -3.9095   -1.6771    2.3943 O   0  0  0  0  0  0  0  0  0  0  0  0
   -5.1704   -2.1637    2.2532 C   0  0  0  0  0  0  0  0  0  0  0  0
   -5.9146   -2.5011    3.3750 C   0  0  0  0  0  0  0  0  0  0  0  0
   -7.1963   -2.9952    3.2303 C   0  0  0  0  0  0  0  0  0  0  0  0
   -7.7394   -3.1543    1.9689 C   0  0  0  0  0  0  0  0  0  0  0  0
   -6.9997   -2.8192    0.8472 C   0  0  0  0  0  0  0  0  0  0  0  0
   -5.7174   -2.3185    0.9881 C   0  0  0  0  0  0  0  0  0  0  0  0
   -7.5321   -2.9759   -0.3845 F   0  0  0  0  0  0  0  0  0  0  0  0
   -8.0036   -3.3617    4.4489 C   0  0  1  0  0  0  0  0  0  0  0  0
   -7.3344   -3.5140    5.2958 H   0  0  0  0  0  0  0  0  0  0  0  0
   -8.9838   -2.2317    4.7702 C   0  0  0  0  0  0  0  0  0  0  0  0
   -8.7492   -4.5955    4.1878 N   0  0  0  0  0  0  0  0  0  0  0  0
   -9.1239   -5.3862    5.2129 C   0  0  0  0  0  0  0  0  0  0  0  0
   -8.8430   -5.0755    6.3550 O   0  0  0  0  0  0  0  0  0  0  0  0
   -9.8721   -6.6242    4.9509 C   0  0  0  0  0  0  0  0  0  0  0  0
  -10.3369   -7.5382    5.8435 C   0  0  0  0  0  0  0  0  0  0  0  0
  -11.0380   -8.6696    5.3889 C   0  0  0  0  0  0  0  0  0  0  0  0
  -11.5952   -9.7247    6.1570 C   0  0  0  0  0  0  0  0  0  0  0  0
  -12.2469  -10.7535    5.5546 C   0  0  0  0  0  0  0  0  0  0  0  0
  -12.3933  -10.8141    4.1729 C   0  0  0  0  0  0  0  0  0  0  0  0
  -11.8667   -9.8081    3.3889 C   0  0  0  0  0  0  0  0  0  0  0  0
  -11.2028   -8.7577    3.9864 C   0  0  0  0  0  0  0  0  0  0  0  0
  -10.4006   -7.2934    3.3834 S   0  0  0  0  0  0  0  0  0  0  0  0
  -12.9125  -12.0234    6.5334 Cl  0  0  0  0  0  0  0  0  0  0  0  0
  -10.1007   -7.3395    7.3185 C   0  0  0  0  0  0  0  0  0  0  0  0
    2.5510   -2.0147    1.4848 H   0  0  0  0  0  0  0  0  0  0  0  0
    1.5294   -3.3267    0.8497 H   0  0  0  0  0  0  0  0  0  0  0  0
    0.9571   -1.6425    0.7854 H   0  0  0  0  0  0  0  0  0  0  0  0
    1.4520   -3.2583    3.3272 H   0  0  0  0  0  0  0  0  0  0  0  0
    0.8797   -1.5741    3.2628 H   0  0  0  0  0  0  0  0  0  0  0  0
   -1.3783   -1.0591    2.6646 H   0  0  0  0  0  0  0  0  0  0  0  0
   -4.1480   -4.2763    2.1675 H   0  0  0  0  0  0  0  0  0  0  0  0
   -2.2829   -5.8818    2.2035 H   0  0  0  0  0  0  0  0  0  0  0  0
    0.0617   -6.2599    1.9249 H   0  0  0  0  0  0  0  0  0  0  0  0
    1.2237   -4.9127    1.9809 H   0  0  0  0  0  0  0  0  0  0  0  0
    0.9901   -4.8139    4.4476 H   0  0  0  0  0  0  0  0  0  0  0  0
   -0.1718   -6.1611    4.3915 H   0  0  0  0  0  0  0  0  0  0  0  0
   -5.4915   -2.3776    4.3610 H   0  0  0  0  0  0  0  0  0  0  0  0
   -8.7418   -3.5408    1.8582 H   0  0  0  0  0  0  0  0  0  0  0  0
   -5.1418   -2.0524    0.1139 H   0  0  0  0  0  0  0  0  0  0  0  0
   -9.5677   -2.4969    5.6516 H   0  0  0  0  0  0  0  0  0  0  0  0
   -8.4291   -1.3138    4.9645 H   0  0  0  0  0  0  0  0  0  0  0  0
   -9.6530   -2.0795    3.9234 H   0  0  0  0  0  0  0  0  0  0  0  0
   -8.9732   -4.8432    3.2771 H   0  0  0  0  0  0  0  0  0  0  0  0
  -11.4999   -9.7099    7.2326 H   0  0  0  0  0  0  0  0  0  0  0  0
  -12.9149  -11.6426    3.7169 H   0  0  0  0  0  0  0  0  0  0  0  0
  -11.9732   -9.8436    2.3148 H   0  0  0  0  0  0  0  0  0  0  0  0
  -10.9279   -6.7726    7.7458 H   0  0  0  0  0  0  0  0  0  0  0  0
  -10.0335   -8.3102    7.8097 H   0  0  0  0  0  0  0  0  0  0  0  0
   -9.1700   -6.7920    7.4670 H   0  0  0  0  0  0  0  0  0  0  0  0
  1  2  1  0  0  0  0
  1 39  1  0  0  0  0
  1 40  1  0  0  0  0
  1 41  1  0  0  0  0
  2  3  1  0  0  0  0
  2 42  1  0  0  0  0
  2 43  1  0  0  0  0
  3  8  2  0  0  0  0
  3  4  1  0  0  0  0
  4  5  2  0  0  0  0
  4 44  1  0  0  0  0
  5  6  1  0  0  0  0
  5 14  1  0  0  0  0
  6  7  2  0  0  0  0
  6 45  1  0  0  0  0
  7  8  1  0  0  0  0
  7 46  1  0  0  0  0
  8  9  1  0  0  0  0
  9 10  1  0  0  0  0
  9 47  1  0  0  0  0
  9 48  1  0  0  0  0
 10 11  1  0  0  0  0
 10 49  1  0  0  0  0
 10 50  1  0  0  0  0
 11 12  2  0  0  0  0
 11 13  1  0  0  0  0
 14 15  1  0  0  0  0
 15 20  2  0  0  0  0
 15 16  1  0  0  0  0
 16 17  2  0  0  0  0
 16 51  1  0  0  0  0
 17 18  1  0  0  0  0
 17 22  1  0  0  0  0
 18 19  2  0  0  0  0
 18 52  1  0  0  0  0
 19 20  1  0  0  0  0
 19 21  1  0  0  0  0
 20 53  1  0  0  0  0
 22 23  1  1  0  0  0
 22 24  1  0  0  0  0
 22 25  1  0  0  0  0
 24 54  1  0  0  0  0
 24 55  1  0  0  0  0
 24 56  1  0  0  0  0
 25 26  1  0  0  0  0
 25 57  1  0  0  0  0
 26 27  2  0  0  0  0
 26 28  1  0  0  0  0
 28 36  1  0  0  0  0
 28 29  2  0  0  0  0
 29 30  1  0  0  0  0
 29 38  1  0  0  0  0
 30 35  2  0  0  0  0
 30 31  1  0  0  0  0
 31 32  2  0  0  0  0
 31 58  1  0  0  0  0
 32 33  1  0  0  0  0
 32 37  1  0  0  0  0
 33 34  2  0  0  0  0
 33 59  1  0  0  0  0
 34 35  1  0  0  0  0
 34 60  1  0  0  0  0
 35 36  1  0  0  0  0
 38 61  1  0  0  0  0
 38 62  1  0  0  0  0
 38 63  1  0  0  0  0
M  CHG  1  13  -1
M  END
$$$$
