CHEMBL418874
 OpenBabel05272217113D

 62 66  0  0  1  0  0  0  0  0999 V2000
   -0.0187    1.5258    0.0104 C   0  0  0  0  0  0  0  0  0  0  0  0
    0.0021   -0.0041    0.0020 C   0  0  0  0  0  0  0  0  0  0  0  0
    0.7182   -0.4975   -1.2568 C   0  0  0  0  0  0  0  0  0  0  0  0
    0.7386   -2.0043   -1.2651 C   0  0  0  0  0  0  0  0  0  0  0  0
    1.8328   -2.6809   -0.7691 C   0  0  0  0  0  0  0  0  0  0  0  0
    1.8507   -4.0753   -0.7767 C   0  0  0  0  0  0  0  0  0  0  0  0
    0.7608   -4.7810   -1.2865 C   0  0  0  0  0  0  0  0  0  0  0  0
   -0.3299   -4.0987   -1.7808 C   0  0  0  0  0  0  0  0  0  0  0  0
   -0.3469   -2.7099   -1.7669 C   0  0  0  0  0  0  0  0  0  0  0  0
   -1.4257   -2.0405   -2.2497 O   0  0  0  0  0  0  0  0  0  0  0  0
   -2.5074   -2.8285   -2.7507 C   0  0  0  0  0  0  0  0  0  0  0  0
   -3.6229   -1.9066   -3.2472 C   0  0  0  0  0  0  0  0  0  0  0  0
   -4.7810   -2.7503   -3.7836 C   0  0  0  0  0  0  0  0  0  0  0  0
   -5.8228   -1.8892   -4.2473 O   0  0  0  0  0  0  0  0  0  0  0  0
   -6.9327   -2.4837   -4.7589 C   0  0  0  0  0  0  0  0  0  0  0  0
   -7.0196   -3.8676   -4.8082 C   0  0  0  0  0  0  0  0  0  0  0  0
   -8.1489   -4.4694   -5.3282 C   0  0  0  0  0  0  0  0  0  0  0  0
   -9.1923   -3.6938   -5.7995 C   0  0  0  0  0  0  0  0  0  0  0  0
   -9.1080   -2.3148   -5.7519 C   0  0  0  0  0  0  0  0  0  0  0  0
   -7.9829   -1.7080   -5.2274 C   0  0  0  0  0  0  0  0  0  0  0  0
  -10.2467   -1.4726   -6.2668 C   0  0  1  0  0  0  0  0  0  0  0  0
  -10.6449   -1.8824   -7.6777 C   0  0  0  0  0  0  0  0  0  0  0  0
   -9.8829   -1.7970   -8.6168 O   0  0  0  0  0  0  0  0  0  0  0  0
  -11.8793   -2.3384   -7.8084 N   0  0  0  0  0  0  0  0  0  0  0  0
  -12.7440   -2.4434   -6.7823 C   0  0  0  0  0  0  0  0  0  0  0  0
  -13.8901   -2.8484   -6.8060 O   0  0  0  0  0  0  0  0  0  0  0  0
  -11.8142   -1.8491   -5.3769 S   0  0  0  0  0  0  0  0  0  0  0  0
    3.0253   -4.8057   -0.2449 C   0  0  0  0  0  0  0  0  0  0  0  0
    3.0037   -6.0908    0.4733 C   0  0  0  0  0  0  0  0  0  0  0  0
    1.9849   -6.9630    0.8565 C   0  0  0  0  0  0  0  0  0  0  0  0
    2.2913   -8.1109    1.5323 C   0  0  0  0  0  0  0  0  0  0  0  0
    3.6094   -8.4155    1.8405 C   0  0  0  0  0  0  0  0  0  0  0  0
    4.6299   -7.5665    1.4704 C   0  0  0  0  0  0  0  0  0  0  0  0
    4.3382   -6.3943    0.7825 C   0  0  0  0  0  0  0  0  0  0  0  0
    5.0998   -5.3915    0.2997 O   0  0  0  0  0  0  0  0  0  0  0  0
    4.2745   -4.4326   -0.3304 N   0  0  0  0  0  0  0  0  0  0  0  0
    1.0039    1.9031    0.0027 H   0  0  0  0  0  0  0  0  0  0  0  0
   -0.5459    1.8868   -0.8726 H   0  0  0  0  0  0  0  0  0  0  0  0
   -0.5289    1.8773    0.9072 H   0  0  0  0  0  0  0  0  0  0  0  0
    0.5293   -0.3651    0.8851 H   0  0  0  0  0  0  0  0  0  0  0  0
   -1.0205   -0.3814    0.0098 H   0  0  0  0  0  0  0  0  0  0  0  0
    0.1910   -0.1364   -2.1398 H   0  0  0  0  0  0  0  0  0  0  0  0
    1.7408   -0.1202   -1.2645 H   0  0  0  0  0  0  0  0  0  0  0  0
    2.6752   -2.1316   -0.3755 H   0  0  0  0  0  0  0  0  0  0  0  0
    0.7718   -5.8610   -1.2941 H   0  0  0  0  0  0  0  0  0  0  0  0
   -1.1739   -4.6446   -2.1759 H   0  0  0  0  0  0  0  0  0  0  0  0
   -2.1542   -3.4481   -3.5750 H   0  0  0  0  0  0  0  0  0  0  0  0
   -2.8909   -3.4670   -1.9548 H   0  0  0  0  0  0  0  0  0  0  0  0
   -3.9761   -1.2871   -2.4228 H   0  0  0  0  0  0  0  0  0  0  0  0
   -3.2393   -1.2681   -4.0431 H   0  0  0  0  0  0  0  0  0  0  0  0
   -4.4278   -3.3698   -4.6080 H   0  0  0  0  0  0  0  0  0  0  0  0
   -5.1645   -3.3887   -2.9877 H   0  0  0  0  0  0  0  0  0  0  0  0
   -6.2048   -4.4737   -4.4407 H   0  0  0  0  0  0  0  0  0  0  0  0
   -8.2169   -5.5465   -5.3672 H   0  0  0  0  0  0  0  0  0  0  0  0
  -10.0745   -4.1663   -6.2057 H   0  0  0  0  0  0  0  0  0  0  0  0
   -7.9193   -0.6307   -5.1863 H   0  0  0  0  0  0  0  0  0  0  0  0
  -10.0060   -0.4108   -6.2143 H   0  0  0  0  0  0  0  0  0  0  0  0
  -12.1773   -2.6114   -8.6902 H   0  0  0  0  0  0  0  0  0  0  0  0
    0.9567   -6.7318    0.6201 H   0  0  0  0  0  0  0  0  0  0  0  0
    1.5017   -8.7854    1.8290 H   0  0  0  0  0  0  0  0  0  0  0  0
    3.8376   -9.3256    2.3752 H   0  0  0  0  0  0  0  0  0  0  0  0
    5.6532   -7.8111    1.7142 H   0  0  0  0  0  0  0  0  0  0  0  0
  1  2  1  0  0  0  0
  1 37  1  0  0  0  0
  1 38  1  0  0  0  0
  1 39  1  0  0  0  0
  2  3  1  0  0  0  0
  2 40  1  0  0  0  0
  2 41  1  0  0  0  0
  3  4  1  0  0  0  0
  3 42  1  0  0  0  0
  3 43  1  0  0  0  0
  4  9  2  0  0  0  0
  4  5  1  0  0  0  0
  5  6  2  0  0  0  0
  5 44  1  0  0  0  0
  6  7  1  0  0  0  0
  6 28  1  0  0  0  0
  7  8  2  0  0  0  0
  7 45  1  0  0  0  0
  8  9  1  0  0  0  0
  8 46  1  0  0  0  0
  9 10  1  0  0  0  0
 10 11  1  0  0  0  0
 11 12  1  0  0  0  0
 11 47  1  0  0  0  0
 11 48  1  0  0  0  0
 12 13  1  0  0  0  0
 12 49  1  0  0  0  0
 12 50  1  0  0  0  0
 13 14  1  0  0  0  0
 13 51  1  0  0  0  0
 13 52  1  0  0  0  0
 14 15  1  0  0  0  0
 15 20  2  0  0  0  0
 15 16  1  0  0  0  0
 16 17  2  0  0  0  0
 16 53  1  0  0  0  0
 17 18  1  0  0  0  0
 17 54  1  0  0  0  0
 18 19  2  0  0  0  0
 18 55  1  0  0  0  0
 19 20  1  0  0  0  0
 19 21  1  0  0  0  0
 20 56  1  0  0  0  0
 21 27  1  0  0  0  0
 21 22  1  0  0  0  0
 21 57  1  1  0  0  0
 22 23  2  0  0  0  0
 22 24  1  0  0  0  0
 24 25  1  0  0  0  0
 24 58  1  0  0  0  0
 25 26  2  0  0  0  0
 25 27  1  0  0  0  0
 28 36  2  0  0  0  0
 28 29  1  0  0  0  0
 29 34  2  0  0  0  0
 29 30  1  0  0  0  0
 30 31  2  0  0  0  0
 30 59  1  0  0  0  0
 31 32  1  0  0  0  0
 31 60  1  0  0  0  0
 32 33  2  0  0  0  0
 32 61  1  0  0  0  0
 33 34  1  0  0  0  0
 33 62  1  0  0  0  0
 34 35  1  0  0  0  0
 35 36  1  0  0  0  0
M  END
$$$$
