CHEMBL435278
 OpenBabel05272217113D

 65 67  0  0  0  0  0  0  0  0999 V2000
   -1.3596   -0.8101   -0.2675 C   0  0  0  0  0  0  0  0  0  0  0  0
    0.1176   -0.4121   -0.2482 C   0  0  0  0  0  0  0  0  0  0  0  0
    0.2658    1.0232   -0.7571 C   0  0  0  0  0  0  0  0  0  0  0  0
    0.6438   -0.5022    1.1611 C   0  0  0  0  0  0  0  0  0  0  0  0
    1.5687   -1.2533    1.4195 O   0  0  0  0  0  0  0  0  0  0  0  0
    0.1445    0.1759    2.0427 O   0  5  0  0  0  0  0  0  0  0  0  0
    0.8600   -1.2954   -1.0913 O   0  0  0  0  0  0  0  0  0  0  0  0
    2.1971   -1.0744   -1.1911 C   0  0  0  0  0  0  0  0  0  0  0  0
    2.8026   -0.1083   -0.4008 C   0  0  0  0  0  0  0  0  0  0  0  0
    4.1622    0.1141   -0.5039 C   0  0  0  0  0  0  0  0  0  0  0  0
    4.9193   -0.6249   -1.3940 C   0  0  0  0  0  0  0  0  0  0  0  0
    4.3181   -1.5881   -2.1831 C   0  0  0  0  0  0  0  0  0  0  0  0
    2.9600   -1.8186   -2.0794 C   0  0  0  0  0  0  0  0  0  0  0  0
    6.4021   -0.3799   -1.5047 C   0  0  0  0  0  0  0  0  0  0  0  0
    7.1435   -1.2845   -0.5184 C   0  0  0  0  0  0  0  0  0  0  0  0
    8.6490   -1.0357   -0.6308 C   0  0  0  0  0  0  0  0  0  0  0  0
    9.3589   -1.9020    0.3136 N   0  0  0  0  0  0  0  0  0  0  0  0
    9.7965   -3.2365   -0.1031 C   0  0  0  0  0  0  0  0  0  0  0  0
   11.2071   -3.1508   -0.6894 C   0  0  0  0  0  0  0  0  0  0  0  0
   11.6572   -4.5236   -1.1181 C   0  0  0  0  0  0  0  0  0  0  0  0
   12.3233   -5.3448   -0.2241 C   0  0  0  0  0  0  0  0  0  0  0  0
   12.7363   -6.6058   -0.6192 C   0  0  0  0  0  0  0  0  0  0  0  0
   12.4837   -7.0443   -1.9055 C   0  0  0  0  0  0  0  0  0  0  0  0
   11.8189   -6.2247   -2.7978 C   0  0  0  0  0  0  0  0  0  0  0  0
   11.4003   -4.9662   -2.4028 C   0  0  0  0  0  0  0  0  0  0  0  0
   10.5591   -3.9401   -3.5223 Cl  0  0  0  0  0  0  0  0  0  0  0  0
   12.5703   -4.9156    1.0329 F   0  0  0  0  0  0  0  0  0  0  0  0
    9.6095   -1.4711    1.5658 C   0  0  0  0  0  0  0  0  0  0  0  0
    9.2463   -0.3634    1.9117 O   0  0  0  0  0  0  0  0  0  0  0  0
   10.2626   -2.2680    2.4346 N   0  0  0  0  0  0  0  0  0  0  0  0
   10.4226   -1.8683    3.7669 C   0  0  0  0  0  0  0  0  0  0  0  0
   10.4740   -0.5181    4.0867 C   0  0  0  0  0  0  0  0  0  0  0  0
   10.6314   -0.1261    5.4018 C   0  0  0  0  0  0  0  0  0  0  0  0
   10.7383   -1.0763    6.4006 C   0  0  0  0  0  0  0  0  0  0  0  0
   10.6876   -2.4230    6.0867 C   0  0  0  0  0  0  0  0  0  0  0  0
   10.5244   -2.8217    4.7721 C   0  0  0  0  0  0  0  0  0  0  0  0
   10.4540   -4.5110    4.3784 Cl  0  0  0  0  0  0  0  0  0  0  0  0
   10.8228   -3.6126    7.3437 Cl  0  0  0  0  0  0  0  0  0  0  0  0
   -1.7615   -0.6665   -1.2705 H   0  0  0  0  0  0  0  0  0  0  0  0
   -1.4573   -1.8579    0.0165 H   0  0  0  0  0  0  0  0  0  0  0  0
   -1.9124   -0.1894    0.4377 H   0  0  0  0  0  0  0  0  0  0  0  0
   -0.1839    1.7108   -0.0409 H   0  0  0  0  0  0  0  0  0  0  0  0
    1.3233    1.2600   -0.8735 H   0  0  0  0  0  0  0  0  0  0  0  0
   -0.2366    1.1211   -1.7195 H   0  0  0  0  0  0  0  0  0  0  0  0
    2.2116    0.4698    0.2941 H   0  0  0  0  0  0  0  0  0  0  0  0
    4.6340    0.8662    0.1111 H   0  0  0  0  0  0  0  0  0  0  0  0
    4.9116   -2.1638   -2.8779 H   0  0  0  0  0  0  0  0  0  0  0  0
    2.4916   -2.5741   -2.6927 H   0  0  0  0  0  0  0  0  0  0  0  0
    6.7322   -0.6014   -2.5196 H   0  0  0  0  0  0  0  0  0  0  0  0
    6.6163    0.6633   -1.2725 H   0  0  0  0  0  0  0  0  0  0  0  0
    6.8134   -1.0630    0.4965 H   0  0  0  0  0  0  0  0  0  0  0  0
    6.9293   -2.3277   -0.7506 H   0  0  0  0  0  0  0  0  0  0  0  0
    8.9791   -1.2572   -1.6457 H   0  0  0  0  0  0  0  0  0  0  0  0
    8.8632    0.0075   -0.3986 H   0  0  0  0  0  0  0  0  0  0  0  0
    9.8013   -3.9031    0.7593 H   0  0  0  0  0  0  0  0  0  0  0  0
    9.1123   -3.6240   -0.8580 H   0  0  0  0  0  0  0  0  0  0  0  0
   11.2023   -2.4842   -1.5518 H   0  0  0  0  0  0  0  0  0  0  0  0
   11.8914   -2.7633    0.0655 H   0  0  0  0  0  0  0  0  0  0  0  0
   13.2562   -7.2467    0.0775 H   0  0  0  0  0  0  0  0  0  0  0  0
   12.8064   -8.0279   -2.2134 H   0  0  0  0  0  0  0  0  0  0  0  0
   11.6224   -6.5681   -3.8027 H   0  0  0  0  0  0  0  0  0  0  0  0
   10.6219   -3.1184    2.1369 H   0  0  0  0  0  0  0  0  0  0  0  0
   10.3914    0.2253    3.3076 H   0  0  0  0  0  0  0  0  0  0  0  0
   10.6714    0.9242    5.6502 H   0  0  0  0  0  0  0  0  0  0  0  0
   10.8620   -0.7667    7.4279 H   0  0  0  0  0  0  0  0  0  0  0  0
  1  2  1  0  0  0  0
  1 39  1  0  0  0  0
  1 40  1  0  0  0  0
  1 41  1  0  0  0  0
  2  3  1  0  0  0  0
  2  4  1  0  0  0  0
  2  7  1  0  0  0  0
  3 42  1  0  0  0  0
  3 43  1  0  0  0  0
  3 44  1  0  0  0  0
  4  5  2  0  0  0  0
  4  6  1  0  0  0  0
  7  8  1  0  0  0  0
  8 13  2  0  0  0  0
  8  9  1  0  0  0  0
  9 10  2  0  0  0  0
  9 45  1  0  0  0  0
 10 11  1  0  0  0  0
 10 46  1  0  0  0  0
 11 12  2  0  0  0  0
 11 14  1  0  0  0  0
 12 13  1  0  0  0  0
 12 47  1  0  0  0  0
 13 48  1  0  0  0  0
 14 15  1  0  0  0  0
 14 49  1  0  0  0  0
 14 50  1  0  0  0  0
 15 16  1  0  0  0  0
 15 51  1  0  0  0  0
 15 52  1  0  0  0  0
 16 17  1  0  0  0  0
 16 53  1  0  0  0  0
 16 54  1  0  0  0  0
 17 18  1  0  0  0  0
 17 28  1  0  0  0  0
 18 19  1  0  0  0  0
 18 55  1  0  0  0  0
 18 56  1  0  0  0  0
 19 20  1  0  0  0  0
 19 57  1  0  0  0  0
 19 58  1  0  0  0  0
 20 25  2  0  0  0  0
 20 21  1  0  0  0  0
 21 22  2  0  0  0  0
 21 27  1  0  0  0  0
 22 23  1  0  0  0  0
 22 59  1  0  0  0  0
 23 24  2  0  0  0  0
 23 60  1  0  0  0  0
 24 25  1  0  0  0  0
 24 61  1  0  0  0  0
 25 26  1  0  0  0  0
 28 29  2  0  0  0  0
 28 30  1  0  0  0  0
 30 31  1  0  0  0  0
 30 62  1  0  0  0  0
 31 36  2  0  0  0  0
 31 32  1  0  0  0  0
 32 33  2  0  0  0  0
 32 63  1  0  0  0  0
 33 34  1  0  0  0  0
 33 64  1  0  0  0  0
 34 35  2  0  0  0  0
 34 65  1  0  0  0  0
 35 36  1  0  0  0  0
 35 38  1  0  0  0  0
 36 37  1  0  0  0  0
M  CHG  1   6  -1
M  END
$$$$
