CHEMBL393767
 OpenBabel05272217113D

 44 47  0  0  0  0  0  0  0  0999 V2000
   -0.0169    1.3914    0.0097 C   0  0  0  0  0  0  0  0  0  0  0  0
    1.1702    2.0944    0.0021 C   0  0  0  0  0  0  0  0  0  0  0  0
    2.3776    1.4189   -0.0130 C   0  0  0  0  0  0  0  0  0  0  0  0
    2.4033    0.0357   -0.0212 C   0  0  0  0  0  0  0  0  0  0  0  0
    1.2234   -0.6793   -0.0142 C   0  0  0  0  0  0  0  0  0  0  0  0
    0.0021   -0.0041    0.0020 C   0  0  0  0  0  0  0  0  0  0  0  0
   -1.2662   -0.7638    0.0105 C   0  0  0  0  0  0  0  0  0  0  0  0
   -1.3901   -2.1189    0.0100 C   0  0  0  0  0  0  0  0  0  0  0  0
   -2.7579   -2.4288    0.0197 C   0  0  0  0  0  0  0  0  0  0  0  0
   -3.4305   -1.3118    0.0259 N   0  0  0  0  0  0  0  0  0  0  0  0
   -2.5059   -0.2393    0.0261 O   0  0  0  0  0  0  0  0  0  0  0  0
   -3.3489   -3.8151    0.0218 C   0  0  0  0  0  0  0  0  0  0  0  0
   -2.2964   -4.7817    0.0122 O   0  0  0  0  0  0  0  0  0  0  0  0
   -2.6612   -6.0917    0.0127 C   0  0  0  0  0  0  0  0  0  0  0  0
   -4.0107   -6.4358    0.0164 C   0  0  0  0  0  0  0  0  0  0  0  0
   -4.3975   -7.7572    0.0165 C   0  0  0  0  0  0  0  0  0  0  0  0
   -3.4367   -8.7630    0.0129 C   0  0  0  0  0  0  0  0  0  0  0  0
   -2.0733   -8.4189    0.0091 C   0  0  0  0  0  0  0  0  0  0  0  0
   -1.6925   -7.0750    0.0037 C   0  0  0  0  0  0  0  0  0  0  0  0
   -1.3357   -9.6845    0.0059 C   0  0  0  0  0  0  0  0  0  0  0  0
   -2.2468  -10.6704    0.0078 C   0  0  0  0  0  0  0  0  0  0  0  0
   -3.5078  -10.1402    0.0120 N   0  0  0  0  0  0  0  0  0  0  0  0
   -4.7486  -10.9191    0.0158 C   0  0  0  0  0  0  0  0  0  0  0  0
   -5.2449  -11.0801   -1.3980 C   0  0  0  0  0  0  0  0  0  0  0  0
   -4.6202  -10.5897   -2.3230 O   0  0  0  0  0  0  0  0  0  0  0  0
   -6.2713  -11.7008   -1.6168 O   0  5  0  0  0  0  0  0  0  0  0  0
    3.6704    2.1934   -0.0212 C   0  0  0  0  0  0  0  0  0  0  0  0
    4.0830    2.4259    1.2952 F   0  0  0  0  0  0  0  0  0  0  0  0
    4.6510    1.4566   -0.6941 F   0  0  0  0  0  0  0  0  0  0  0  0
    3.4772    3.4164   -0.6723 F   0  0  0  0  0  0  0  0  0  0  0  0
   -0.9586    1.9198    0.0260 H   0  0  0  0  0  0  0  0  0  0  0  0
    1.1570    3.1743    0.0077 H   0  0  0  0  0  0  0  0  0  0  0  0
    3.3491   -0.4856   -0.0333 H   0  0  0  0  0  0  0  0  0  0  0  0
    1.2448   -1.7590   -0.0213 H   0  0  0  0  0  0  0  0  0  0  0  0
   -0.5779   -2.8307    0.0029 H   0  0  0  0  0  0  0  0  0  0  0  0
   -3.9574   -3.9494    0.9161 H   0  0  0  0  0  0  0  0  0  0  0  0
   -3.9708   -3.9463   -0.8638 H   0  0  0  0  0  0  0  0  0  0  0  0
   -4.7609   -5.6588    0.0196 H   0  0  0  0  0  0  0  0  0  0  0  0
   -5.4469   -8.0127    0.0198 H   0  0  0  0  0  0  0  0  0  0  0  0
   -0.6463   -6.8069   -0.0033 H   0  0  0  0  0  0  0  0  0  0  0  0
   -0.2621   -9.8021    0.0021 H   0  0  0  0  0  0  0  0  0  0  0  0
   -2.0180  -11.7259    0.0063 H   0  0  0  0  0  0  0  0  0  0  0  0
   -4.5596  -11.9014    0.4486 H   0  0  0  0  0  0  0  0  0  0  0  0
   -5.5018  -10.3998    0.6083 H   0  0  0  0  0  0  0  0  0  0  0  0
  1  6  2  0  0  0  0
  1  2  1  0  0  0  0
  1 31  1  0  0  0  0
  2  3  2  0  0  0  0
  2 32  1  0  0  0  0
  3  4  1  0  0  0  0
  3 27  1  0  0  0  0
  4  5  2  0  0  0  0
  4 33  1  0  0  0  0
  5  6  1  0  0  0  0
  5 34  1  0  0  0  0
  6  7  1  0  0  0  0
  7 11  1  0  0  0  0
  7  8  2  0  0  0  0
  8  9  1  0  0  0  0
  8 35  1  0  0  0  0
  9 10  2  0  0  0  0
  9 12  1  0  0  0  0
 10 11  1  0  0  0  0
 12 13  1  0  0  0  0
 12 36  1  0  0  0  0
 12 37  1  0  0  0  0
 13 14  1  0  0  0  0
 14 19  2  0  0  0  0
 14 15  1  0  0  0  0
 15 16  2  0  0  0  0
 15 38  1  0  0  0  0
 16 17  1  0  0  0  0
 16 39  1  0  0  0  0
 17 22  1  0  0  0  0
 17 18  2  0  0  0  0
 18 19  1  0  0  0  0
 18 20  1  0  0  0  0
 19 40  1  0  0  0  0
 20 21  2  0  0  0  0
 20 41  1  0  0  0  0
 21 22  1  0  0  0  0
 21 42  1  0  0  0  0
 22 23  1  0  0  0  0
 23 24  1  0  0  0  0
 23 43  1  0  0  0  0
 23 44  1  0  0  0  0
 24 25  2  0  0  0  0
 24 26  1  0  0  0  0
 27 28  1  0  0  0  0
 27 29  1  0  0  0  0
 27 30  1  0  0  0  0
M  CHG  1  26  -1
M  END
$$$$
