CHEMBL383313
 OpenBabel05272217113D

 59 62  0  0  0  0  0  0  0  0999 V2000
   -0.0184    1.5028    0.0103 C   0  0  0  0  0  0  0  0  0  0  0  0
    0.0021   -0.0041    0.0020 C   0  0  0  0  0  0  0  0  0  0  0  0
    0.0058   -0.6883   -1.1982 C   0  0  0  0  0  0  0  0  0  0  0  0
    0.0251   -2.0749   -1.2058 C   0  0  0  0  0  0  0  0  0  0  0  0
    0.0406   -2.7749   -0.0083 C   0  0  0  0  0  0  0  0  0  0  0  0
    0.0369   -2.0909    1.1915 C   0  0  0  0  0  0  0  0  0  0  0  0
    0.0229   -0.7038    1.1991 C   0  0  0  0  0  0  0  0  0  0  0  0
    0.0250   -0.0303    2.3804 O   0  0  0  0  0  0  0  0  0  0  0  0
    0.0470   -0.8150    3.5745 C   0  0  0  0  0  0  0  0  0  0  0  0
    0.0459    0.0965    4.7746 C   0  0  0  0  0  0  0  0  0  0  0  0
    0.0280    1.3060    4.6215 O   0  0  0  0  0  0  0  0  0  0  0  0
    0.0630   -0.3755    5.8986 O   0  5  0  0  0  0  0  0  0  0  0  0
    0.0283   -2.7483   -2.3872 O   0  0  0  0  0  0  0  0  0  0  0  0
    0.0485   -4.1756   -2.3202 C   0  0  0  0  0  0  0  0  0  0  0  0
    0.0491   -4.7440   -3.7159 C   0  0  0  0  0  0  0  0  0  0  0  0
    0.0375   -3.9014   -4.8146 C   0  0  0  0  0  0  0  0  0  0  0  0
    0.0390   -4.4712   -6.0911 C   0  0  0  0  0  0  0  0  0  0  0  0
    0.0516   -5.7966   -6.2054 N   0  0  0  0  0  0  0  0  0  0  0  0
    0.0625   -6.5665   -5.1275 C   0  0  0  0  0  0  0  0  0  0  0  0
    0.0664   -6.0529   -3.9046 N   0  0  0  0  0  0  0  0  0  0  0  0
    0.0763   -8.0404   -5.2924 C   0  0  0  0  0  0  0  0  0  0  0  0
    0.0836   -8.6015   -6.5682 C   0  0  0  0  0  0  0  0  0  0  0  0
    0.0970   -9.9736   -6.7156 C   0  0  0  0  0  0  0  0  0  0  0  0
    0.1032  -10.7917   -5.6002 C   0  0  0  0  0  0  0  0  0  0  0  0
    0.0955  -10.2403   -4.3316 C   0  0  0  0  0  0  0  0  0  0  0  0
    0.0880   -8.8695   -4.1722 C   0  0  0  0  0  0  0  0  0  0  0  0
    0.1178  -12.2893   -5.7678 C   0  0  0  0  0  0  0  0  0  0  0  0
    1.4412  -12.7401   -5.8176 F   0  0  0  0  0  0  0  0  0  0  0  0
   -0.5376  -12.8860   -4.6854 F   0  0  0  0  0  0  0  0  0  0  0  0
   -0.5367  -12.6320   -6.9558 F   0  0  0  0  0  0  0  0  0  0  0  0
    0.0263   -3.6114   -7.2995 C   0  0  0  0  0  0  0  0  0  0  0  0
    0.0185   -2.2236   -7.1705 C   0  0  0  0  0  0  0  0  0  0  0  0
    0.0072   -1.4285   -8.2984 C   0  0  0  0  0  0  0  0  0  0  0  0
    0.0031   -2.0063   -9.5552 C   0  0  0  0  0  0  0  0  0  0  0  0
    0.0108   -3.3831   -9.6892 C   0  0  0  0  0  0  0  0  0  0  0  0
    0.0279   -4.1881   -8.5684 C   0  0  0  0  0  0  0  0  0  0  0  0
   -0.0103   -1.1326  -10.7830 C   0  0  0  0  0  0  0  0  0  0  0  0
    1.3045   -0.8537  -11.1712 F   0  0  0  0  0  0  0  0  0  0  0  0
   -0.6719   -1.7973  -11.8211 F   0  0  0  0  0  0  0  0  0  0  0  0
   -0.6758    0.0641  -10.4966 F   0  0  0  0  0  0  0  0  0  0  0  0
    1.0042    1.8801    0.0026 H   0  0  0  0  0  0  0  0  0  0  0  0
   -0.5455    1.8639   -0.8728 H   0  0  0  0  0  0  0  0  0  0  0  0
   -0.5286    1.8543    0.9071 H   0  0  0  0  0  0  0  0  0  0  0  0
   -0.0067   -0.1432   -2.1305 H   0  0  0  0  0  0  0  0  0  0  0  0
    0.0553   -3.8548   -0.0143 H   0  0  0  0  0  0  0  0  0  0  0  0
    0.0483   -2.6360    2.1238 H   0  0  0  0  0  0  0  0  0  0  0  0
   -0.8341   -1.4560    3.6044 H   0  0  0  0  0  0  0  0  0  0  0  0
    0.9456   -1.4317    3.5875 H   0  0  0  0  0  0  0  0  0  0  0  0
    0.9459   -4.5020   -1.7946 H   0  0  0  0  0  0  0  0  0  0  0  0
   -0.8339   -4.5268   -1.7853 H   0  0  0  0  0  0  0  0  0  0  0  0
    0.0270   -2.8288   -4.6883 H   0  0  0  0  0  0  0  0  0  0  0  0
    0.0784   -7.9637   -7.4397 H   0  0  0  0  0  0  0  0  0  0  0  0
    0.1023  -10.4095   -7.7038 H   0  0  0  0  0  0  0  0  0  0  0  0
    0.1001  -10.8838   -3.4642 H   0  0  0  0  0  0  0  0  0  0  0  0
    0.0869   -8.4400   -3.1812 H   0  0  0  0  0  0  0  0  0  0  0  0
    0.0210   -1.7714   -6.1897 H   0  0  0  0  0  0  0  0  0  0  0  0
    0.0012   -0.3530   -8.1996 H   0  0  0  0  0  0  0  0  0  0  0  0
    0.0072   -3.8288  -10.6729 H   0  0  0  0  0  0  0  0  0  0  0  0
    0.0381   -5.2628   -8.6742 H   0  0  0  0  0  0  0  0  0  0  0  0
  1  2  1  0  0  0  0
  1 41  1  0  0  0  0
  1 42  1  0  0  0  0
  1 43  1  0  0  0  0
  2  7  2  0  0  0  0
  2  3  1  0  0  0  0
  3  4  2  0  0  0  0
  3 44  1  0  0  0  0
  4  5  1  0  0  0  0
  4 13  1  0  0  0  0
  5  6  2  0  0  0  0
  5 45  1  0  0  0  0
  6  7  1  0  0  0  0
  6 46  1  0  0  0  0
  7  8  1  0  0  0  0
  8  9  1  0  0  0  0
  9 10  1  0  0  0  0
  9 47  1  0  0  0  0
  9 48  1  0  0  0  0
 10 11  2  0  0  0  0
 10 12  1  0  0  0  0
 13 14  1  0  0  0  0
 14 15  1  0  0  0  0
 14 49  1  0  0  0  0
 14 50  1  0  0  0  0
 15 20  2  0  0  0  0
 15 16  1  0  0  0  0
 16 17  2  0  0  0  0
 16 51  1  0  0  0  0
 17 18  1  0  0  0  0
 17 31  1  0  0  0  0
 18 19  2  0  0  0  0
 19 20  1  0  0  0  0
 19 21  1  0  0  0  0
 21 26  2  0  0  0  0
 21 22  1  0  0  0  0
 22 23  2  0  0  0  0
 22 52  1  0  0  0  0
 23 24  1  0  0  0  0
 23 53  1  0  0  0  0
 24 25  2  0  0  0  0
 24 27  1  0  0  0  0
 25 26  1  0  0  0  0
 25 54  1  0  0  0  0
 26 55  1  0  0  0  0
 27 28  1  0  0  0  0
 27 29  1  0  0  0  0
 27 30  1  0  0  0  0
 31 36  2  0  0  0  0
 31 32  1  0  0  0  0
 32 33  2  0  0  0  0
 32 56  1  0  0  0  0
 33 34  1  0  0  0  0
 33 57  1  0  0  0  0
 34 35  2  0  0  0  0
 34 37  1  0  0  0  0
 35 36  1  0  0  0  0
 35 58  1  0  0  0  0
 36 59  1  0  0  0  0
 37 38  1  0  0  0  0
 37 39  1  0  0  0  0
 37 40  1  0  0  0  0
M  CHG  1  12  -1
M  END
$$$$
