CHEMBL1075893
 OpenBabel05272217113D

 71 76  0  0  0  0  0  0  0  0999 V2000
   -0.4932    2.0090   -0.7884 C   0  0  0  0  0  0  0  0  0  0  0  0
   -0.3846    0.5147   -0.6264 C   0  0  0  0  0  0  0  0  0  0  0  0
   -0.3222   -0.2983   -1.7416 C   0  0  0  0  0  0  0  0  0  0  0  0
   -0.2218   -1.6734   -1.5925 C   0  0  0  0  0  0  0  0  0  0  0  0
   -0.1840   -2.2325   -0.3235 C   0  0  0  0  0  0  0  0  0  0  0  0
   -0.2463   -1.4197    0.7914 C   0  0  0  0  0  0  0  0  0  0  0  0
   -0.3415   -0.0438    0.6422 C   0  0  0  0  0  0  0  0  0  0  0  0
   -0.3972    0.7568    1.7399 O   0  0  0  0  0  0  0  0  0  0  0  0
   -0.3480    0.1138    3.0151 C   0  0  0  0  0  0  0  0  0  0  0  0
   -0.4210    1.1525    4.1046 C   0  0  0  0  0  0  0  0  0  0  0  0
   -0.5072    2.3338    3.8158 O   0  0  0  0  0  0  0  0  0  0  0  0
   -0.3939    0.8114    5.2748 O   0  5  0  0  0  0  0  0  0  0  0  0
   -0.1608   -2.4737   -2.6901 O   0  0  0  0  0  0  0  0  0  0  0  0
   -0.0582   -3.8807   -2.4623 C   0  0  0  0  0  0  0  0  0  0  0  0
   -0.0026   -4.6010   -3.7849 C   0  0  0  0  0  0  0  0  0  0  0  0
    1.0541   -4.9159   -4.4871 N   0  0  0  0  0  0  0  0  0  0  0  0
    0.9550   -5.5552   -5.6417 C   0  0  0  0  0  0  0  0  0  0  0  0
   -0.3401   -5.8670   -6.0544 C   0  0  0  0  0  0  0  0  0  0  0  0
   -1.2856   -5.1934   -4.6977 S   0  0  0  0  0  0  0  0  0  0  0  0
   -0.8003   -6.5639   -7.2704 C   0  0  0  0  0  0  0  0  0  0  0  0
   -0.1992   -7.7648   -7.6584 C   0  0  0  0  0  0  0  0  0  0  0  0
   -0.6300   -8.4141   -8.7930 C   0  0  0  0  0  0  0  0  0  0  0  0
   -1.6661   -7.8743   -9.5556 C   0  0  0  0  0  0  0  0  0  0  0  0
   -2.2671   -6.6758   -9.1695 C   0  0  0  0  0  0  0  0  0  0  0  0
   -1.8419   -6.0270   -8.0325 C   0  0  0  0  0  0  0  0  0  0  0  0
   -2.1287   -8.5747  -10.7778 C   0  0  0  0  0  0  0  0  0  0  0  0
   -1.5342   -9.7751  -11.1638 C   0  0  0  0  0  0  0  0  0  0  0  0
   -1.9689  -10.4225  -12.3023 C   0  0  0  0  0  0  0  0  0  0  0  0
   -2.9925   -9.8825  -13.0601 C   0  0  0  0  0  0  0  0  0  0  0  0
   -3.5863   -8.6916  -12.6820 C   0  0  0  0  0  0  0  0  0  0  0  0
   -3.1638   -8.0383  -11.5423 C   0  0  0  0  0  0  0  0  0  0  0  0
    2.1445   -5.9163   -6.4450 C   0  0  0  0  0  0  0  0  0  0  0  0
    2.1323   -5.7385   -7.8296 C   0  0  0  0  0  0  0  0  0  0  0  0
    3.2392   -6.0747   -8.5764 C   0  0  0  0  0  0  0  0  0  0  0  0
    4.3726   -6.5927   -7.9498 C   0  0  0  0  0  0  0  0  0  0  0  0
    4.3855   -6.7706   -6.5663 C   0  0  0  0  0  0  0  0  0  0  0  0
    3.2813   -6.4295   -5.8177 C   0  0  0  0  0  0  0  0  0  0  0  0
    5.5642   -6.9550   -8.7547 C   0  0  0  0  0  0  0  0  0  0  0  0
    5.5564   -6.7735  -10.1367 C   0  0  0  0  0  0  0  0  0  0  0  0
    6.6684   -7.1120  -10.8807 C   0  0  0  0  0  0  0  0  0  0  0  0
    7.7890   -7.6309  -10.2575 C   0  0  0  0  0  0  0  0  0  0  0  0
    7.8023   -7.8136   -8.8863 C   0  0  0  0  0  0  0  0  0  0  0  0
    6.6984   -7.4729   -8.1315 C   0  0  0  0  0  0  0  0  0  0  0  0
    0.5056    2.4436   -0.8296 H   0  0  0  0  0  0  0  0  0  0  0  0
   -1.0268    2.2366   -1.7113 H   0  0  0  0  0  0  0  0  0  0  0  0
   -1.0370    2.4278    0.0584 H   0  0  0  0  0  0  0  0  0  0  0  0
   -0.3520    0.1369   -2.7295 H   0  0  0  0  0  0  0  0  0  0  0  0
   -0.1061   -3.3034   -0.2073 H   0  0  0  0  0  0  0  0  0  0  0  0
   -0.2176   -1.8551    1.7793 H   0  0  0  0  0  0  0  0  0  0  0  0
   -1.1905   -0.5714    3.1093 H   0  0  0  0  0  0  0  0  0  0  0  0
    0.5848   -0.4427    3.1056 H   0  0  0  0  0  0  0  0  0  0  0  0
    0.8484   -4.0918   -1.8953 H   0  0  0  0  0  0  0  0  0  0  0  0
   -0.9268   -4.2218   -1.8990 H   0  0  0  0  0  0  0  0  0  0  0  0
    0.6031   -8.1827   -7.0685 H   0  0  0  0  0  0  0  0  0  0  0  0
   -0.1655   -9.3417   -9.0933 H   0  0  0  0  0  0  0  0  0  0  0  0
   -3.0688   -6.2589   -9.7610 H   0  0  0  0  0  0  0  0  0  0  0  0
   -2.3101   -5.1014   -7.7316 H   0  0  0  0  0  0  0  0  0  0  0  0
   -0.7347  -10.1973  -10.5731 H   0  0  0  0  0  0  0  0  0  0  0  0
   -1.5088  -11.3523  -12.6025 H   0  0  0  0  0  0  0  0  0  0  0  0
   -3.3292  -10.3925  -13.9506 H   0  0  0  0  0  0  0  0  0  0  0  0
   -4.3848   -8.2746  -13.2777 H   0  0  0  0  0  0  0  0  0  0  0  0
   -3.6313   -7.1111  -11.2454 H   0  0  0  0  0  0  0  0  0  0  0  0
    1.2547   -5.3378   -8.3150 H   0  0  0  0  0  0  0  0  0  0  0  0
    3.2297   -5.9375   -9.6476 H   0  0  0  0  0  0  0  0  0  0  0  0
    5.2633   -7.1718   -6.0817 H   0  0  0  0  0  0  0  0  0  0  0  0
    3.2930   -6.5631   -4.7461 H   0  0  0  0  0  0  0  0  0  0  0  0
    4.6817   -6.3691  -10.6244 H   0  0  0  0  0  0  0  0  0  0  0  0
    6.6635   -6.9718  -11.9515 H   0  0  0  0  0  0  0  0  0  0  0  0
    8.6569   -7.8947  -10.8437 H   0  0  0  0  0  0  0  0  0  0  0  0
    8.6799   -8.2195   -8.4051 H   0  0  0  0  0  0  0  0  0  0  0  0
    6.7116   -7.6115   -7.0605 H   0  0  0  0  0  0  0  0  0  0  0  0
  1  2  1  0  0  0  0
  1 44  1  0  0  0  0
  1 45  1  0  0  0  0
  1 46  1  0  0  0  0
  2  7  2  0  0  0  0
  2  3  1  0  0  0  0
  3  4  2  0  0  0  0
  3 47  1  0  0  0  0
  4  5  1  0  0  0  0
  4 13  1  0  0  0  0
  5  6  2  0  0  0  0
  5 48  1  0  0  0  0
  6  7  1  0  0  0  0
  6 49  1  0  0  0  0
  7  8  1  0  0  0  0
  8  9  1  0  0  0  0
  9 10  1  0  0  0  0
  9 50  1  0  0  0  0
  9 51  1  0  0  0  0
 10 11  2  0  0  0  0
 10 12  1  0  0  0  0
 13 14  1  0  0  0  0
 14 15  1  0  0  0  0
 14 52  1  0  0  0  0
 14 53  1  0  0  0  0
 15 19  1  0  0  0  0
 15 16  2  0  0  0  0
 16 17  1  0  0  0  0
 17 18  2  0  0  0  0
 17 32  1  0  0  0  0
 18 19  1  0  0  0  0
 18 20  1  0  0  0  0
 20 25  2  0  0  0  0
 20 21  1  0  0  0  0
 21 22  2  0  0  0  0
 21 54  1  0  0  0  0
 22 23  1  0  0  0  0
 22 55  1  0  0  0  0
 23 24  2  0  0  0  0
 23 26  1  0  0  0  0
 24 25  1  0  0  0  0
 24 56  1  0  0  0  0
 25 57  1  0  0  0  0
 26 31  2  0  0  0  0
 26 27  1  0  0  0  0
 27 28  2  0  0  0  0
 27 58  1  0  0  0  0
 28 29  1  0  0  0  0
 28 59  1  0  0  0  0
 29 30  2  0  0  0  0
 29 60  1  0  0  0  0
 30 31  1  0  0  0  0
 30 61  1  0  0  0  0
 31 62  1  0  0  0  0
 32 37  2  0  0  0  0
 32 33  1  0  0  0  0
 33 34  2  0  0  0  0
 33 63  1  0  0  0  0
 34 35  1  0  0  0  0
 34 64  1  0  0  0  0
 35 36  2  0  0  0  0
 35 38  1  0  0  0  0
 36 37  1  0  0  0  0
 36 65  1  0  0  0  0
 37 66  1  0  0  0  0
 38 43  2  0  0  0  0
 38 39  1  0  0  0  0
 39 40  2  0  0  0  0
 39 67  1  0  0  0  0
 40 41  1  0  0  0  0
 40 68  1  0  0  0  0
 41 42  2  0  0  0  0
 41 69  1  0  0  0  0
 42 43  1  0  0  0  0
 42 70  1  0  0  0  0
 43 71  1  0  0  0  0
M  CHG  1  12  -1
M  END
$$$$
