CHEMBL1079739
 OpenBabel05272217113D

 59 62  0  0  0  0  0  0  0  0999 V2000
   -0.0184    1.5028    0.0103 C   0  0  0  0  0  0  0  0  0  0  0  0
    0.0021   -0.0041    0.0020 C   0  0  0  0  0  0  0  0  0  0  0  0
    0.0058   -0.6883   -1.1982 C   0  0  0  0  0  0  0  0  0  0  0  0
    0.0251   -2.0749   -1.2058 C   0  0  0  0  0  0  0  0  0  0  0  0
    0.0406   -2.7749   -0.0083 C   0  0  0  0  0  0  0  0  0  0  0  0
    0.0369   -2.0909    1.1915 C   0  0  0  0  0  0  0  0  0  0  0  0
    0.0229   -0.7038    1.1991 C   0  0  0  0  0  0  0  0  0  0  0  0
    0.0250   -0.0303    2.3804 O   0  0  0  0  0  0  0  0  0  0  0  0
    0.0470   -0.8150    3.5745 C   0  0  0  0  0  0  0  0  0  0  0  0
    0.0459    0.0965    4.7746 C   0  0  0  0  0  0  0  0  0  0  0  0
    0.0280    1.3060    4.6215 O   0  0  0  0  0  0  0  0  0  0  0  0
    0.0630   -0.3755    5.8986 O   0  5  0  0  0  0  0  0  0  0  0  0
    0.0283   -2.7483   -2.3872 O   0  0  0  0  0  0  0  0  0  0  0  0
    0.0485   -4.1756   -2.3202 C   0  0  0  0  0  0  0  0  0  0  0  0
    0.0491   -4.7440   -3.7159 C   0  0  0  0  0  0  0  0  0  0  0  0
    1.0799   -5.0384   -4.4655 N   0  0  0  0  0  0  0  0  0  0  0  0
    0.9346   -5.5360   -5.6817 C   0  0  0  0  0  0  0  0  0  0  0  0
   -0.3852   -5.7240   -6.1074 C   0  0  0  0  0  0  0  0  0  0  0  0
   -1.2756   -5.1538   -4.6685 S   0  0  0  0  0  0  0  0  0  0  0  0
   -0.8934   -6.2459   -7.3756 C   0  0  0  0  0  0  0  0  0  0  0  0
   -2.2228   -6.3440   -7.5801 C   0  0  0  0  0  0  0  0  0  0  0  0
   -2.7343   -6.8693   -8.8565 C   0  0  0  0  0  0  0  0  0  0  0  0
   -1.8449   -7.2731   -9.8572 C   0  0  0  0  0  0  0  0  0  0  0  0
   -2.3318   -7.7641  -11.0502 C   0  0  0  0  0  0  0  0  0  0  0  0
   -3.6968   -7.8578  -11.2585 C   0  0  0  0  0  0  0  0  0  0  0  0
   -4.5835   -7.4598  -10.2731 C   0  0  0  0  0  0  0  0  0  0  0  0
   -4.1121   -6.9725   -9.0724 C   0  0  0  0  0  0  0  0  0  0  0  0
    2.0937   -5.8722   -6.5384 C   0  0  0  0  0  0  0  0  0  0  0  0
    2.0315   -6.9673   -7.4013 C   0  0  0  0  0  0  0  0  0  0  0  0
    3.1133   -7.2774   -8.1978 C   0  0  0  0  0  0  0  0  0  0  0  0
    4.2638   -6.5021   -8.1418 C   0  0  0  0  0  0  0  0  0  0  0  0
    4.3297   -5.4120   -7.2842 C   0  0  0  0  0  0  0  0  0  0  0  0
    3.2496   -5.0916   -6.4895 C   0  0  0  0  0  0  0  0  0  0  0  0
    5.3282   -6.8111   -8.9281 O   0  0  0  0  0  0  0  0  0  0  0  0
    6.4797   -5.9718   -8.8204 C   0  0  0  0  0  0  0  0  0  0  0  0
    1.0042    1.8801    0.0026 H   0  0  0  0  0  0  0  0  0  0  0  0
   -0.5455    1.8639   -0.8728 H   0  0  0  0  0  0  0  0  0  0  0  0
   -0.5286    1.8543    0.9071 H   0  0  0  0  0  0  0  0  0  0  0  0
   -0.0067   -0.1432   -2.1305 H   0  0  0  0  0  0  0  0  0  0  0  0
    0.0553   -3.8548   -0.0143 H   0  0  0  0  0  0  0  0  0  0  0  0
    0.0483   -2.6360    2.1238 H   0  0  0  0  0  0  0  0  0  0  0  0
   -0.8341   -1.4560    3.6044 H   0  0  0  0  0  0  0  0  0  0  0  0
    0.9456   -1.4317    3.5875 H   0  0  0  0  0  0  0  0  0  0  0  0
    0.9459   -4.5020   -1.7946 H   0  0  0  0  0  0  0  0  0  0  0  0
   -0.8339   -4.5268   -1.7853 H   0  0  0  0  0  0  0  0  0  0  0  0
   -0.2040   -6.5528   -8.1482 H   0  0  0  0  0  0  0  0  0  0  0  0
   -2.9122   -6.0371   -6.8074 H   0  0  0  0  0  0  0  0  0  0  0  0
   -0.7794   -7.2002   -9.6962 H   0  0  0  0  0  0  0  0  0  0  0  0
   -1.6462   -8.0760  -11.8241 H   0  0  0  0  0  0  0  0  0  0  0  0
   -4.0721   -8.2432  -12.1950 H   0  0  0  0  0  0  0  0  0  0  0  0
   -5.6473   -7.5353  -10.4433 H   0  0  0  0  0  0  0  0  0  0  0  0
   -4.8052   -6.6668   -8.3025 H   0  0  0  0  0  0  0  0  0  0  0  0
    1.1372   -7.5713   -7.4449 H   0  0  0  0  0  0  0  0  0  0  0  0
    3.0659   -8.1247   -8.8658 H   0  0  0  0  0  0  0  0  0  0  0  0
    5.2265   -4.8117   -7.2429 H   0  0  0  0  0  0  0  0  0  0  0  0
    3.2998   -4.2408   -5.8262 H   0  0  0  0  0  0  0  0  0  0  0  0
    7.2540   -6.3282   -9.4998 H   0  0  0  0  0  0  0  0  0  0  0  0
    6.2094   -4.9488   -9.0821 H   0  0  0  0  0  0  0  0  0  0  0  0
    6.8541   -5.9981   -7.7970 H   0  0  0  0  0  0  0  0  0  0  0  0
  1  2  1  0  0  0  0
  1 36  1  0  0  0  0
  1 37  1  0  0  0  0
  1 38  1  0  0  0  0
  2  7  2  0  0  0  0
  2  3  1  0  0  0  0
  3  4  2  0  0  0  0
  3 39  1  0  0  0  0
  4  5  1  0  0  0  0
  4 13  1  0  0  0  0
  5  6  2  0  0  0  0
  5 40  1  0  0  0  0
  6  7  1  0  0  0  0
  6 41  1  0  0  0  0
  7  8  1  0  0  0  0
  8  9  1  0  0  0  0
  9 10  1  0  0  0  0
  9 42  1  0  0  0  0
  9 43  1  0  0  0  0
 10 11  2  0  0  0  0
 10 12  1  0  0  0  0
 13 14  1  0  0  0  0
 14 15  1  0  0  0  0
 14 44  1  0  0  0  0
 14 45  1  0  0  0  0
 15 19  1  0  0  0  0
 15 16  2  0  0  0  0
 16 17  1  0  0  0  0
 17 18  2  0  0  0  0
 17 28  1  0  0  0  0
 18 19  1  0  0  0  0
 18 20  1  0  0  0  0
 20 21  2  0  0  0  0
 20 46  1  0  0  0  0
 21 22  1  0  0  0  0
 21 47  1  0  0  0  0
 22 27  2  0  0  0  0
 22 23  1  0  0  0  0
 23 24  2  0  0  0  0
 23 48  1  0  0  0  0
 24 25  1  0  0  0  0
 24 49  1  0  0  0  0
 25 26  2  0  0  0  0
 25 50  1  0  0  0  0
 26 27  1  0  0  0  0
 26 51  1  0  0  0  0
 27 52  1  0  0  0  0
 28 33  2  0  0  0  0
 28 29  1  0  0  0  0
 29 30  2  0  0  0  0
 29 53  1  0  0  0  0
 30 31  1  0  0  0  0
 30 54  1  0  0  0  0
 31 32  2  0  0  0  0
 31 34  1  0  0  0  0
 32 33  1  0  0  0  0
 32 55  1  0  0  0  0
 33 56  1  0  0  0  0
 34 35  1  0  0  0  0
 35 57  1  0  0  0  0
 35 58  1  0  0  0  0
 35 59  1  0  0  0  0
M  CHG  1  12  -1
M  END
$$$$
