CHEMBL241299
 OpenBabel05272217113D

 56 58  0  0  1  0  0  0  0  0999 V2000
    0.7775    1.9519   -1.2315 C   0  0  0  0  0  0  0  0  0  0  0  0
    0.6895    0.4642   -1.0078 C   0  0  0  0  0  0  0  0  0  0  0  0
    0.5658   -0.3900   -2.0867 C   0  0  0  0  0  0  0  0  0  0  0  0
    0.4852   -1.7592   -1.8801 C   0  0  0  0  0  0  0  0  0  0  0  0
    0.5290   -2.2676   -0.5898 C   0  0  0  0  0  0  0  0  0  0  0  0
    0.6527   -1.4095    0.4855 C   0  0  0  0  0  0  0  0  0  0  0  0
    0.7382   -0.0451    0.2765 C   0  0  0  0  0  0  0  0  0  0  0  0
    0.8793    0.8884    1.4511 C   0  0  0  0  0  0  0  0  0  0  0  0
   -0.5018    1.4014    1.8637 C   0  0  0  0  0  0  0  0  0  0  0  0
   -0.3606    2.3350    3.0383 C   0  0  0  0  0  0  0  0  0  0  0  0
    0.7424    2.5683    3.5024 O   0  0  0  0  0  0  0  0  0  0  0  0
   -1.3494    2.8569    3.5245 O   0  5  0  0  0  0  0  0  0  0  0  0
    0.3631   -2.6015   -2.9396 O   0  0  0  0  0  0  0  0  0  0  0  0
    0.2856   -3.9990   -2.6519 C   0  0  0  0  0  0  0  0  0  0  0  0
    0.1523   -4.7823   -3.9594 C   0  0  0  0  0  0  0  0  0  0  0  0
    0.0693   -6.2787   -3.6514 C   0  0  1  0  0  0  0  0  0  0  0  0
   -0.7456   -6.4607   -2.9507 H   0  0  0  0  0  0  0  0  0  0  0  0
   -0.1888   -7.0523   -4.9459 C   0  0  0  0  0  0  0  0  0  0  0  0
    1.3011   -6.7150   -3.0732 O   0  0  0  0  0  0  0  0  0  0  0  0
    1.2546   -7.8191   -2.2834 C   0  0  0  0  0  0  0  0  0  0  0  0
    0.0744   -8.5349   -2.1577 C   0  0  0  0  0  0  0  0  0  0  0  0
    0.0280   -9.6581   -1.3547 C   0  0  0  0  0  0  0  0  0  0  0  0
    1.1579  -10.0755   -0.6708 C   0  0  0  0  0  0  0  0  0  0  0  0
    2.3401   -9.3718   -0.7871 C   0  0  0  0  0  0  0  0  0  0  0  0
    2.3988   -8.2408   -1.5991 C   0  0  0  0  0  0  0  0  0  0  0  0
    3.6670   -7.4849   -1.7325 C   0  0  0  0  0  0  0  0  0  0  0  0
    4.8039   -7.9163   -1.0509 C   0  0  0  0  0  0  0  0  0  0  0  0
    5.9802   -7.2003   -1.1853 C   0  0  0  0  0  0  0  0  0  0  0  0
    5.9820   -6.0749   -1.9978 C   0  0  0  0  0  0  0  0  0  0  0  0
    4.8182   -5.7037   -2.6447 C   0  0  0  0  0  0  0  0  0  0  0  0
    3.7122   -6.4063   -2.5040 N   0  0  0  0  0  0  0  0  0  0  0  0
    1.0872  -11.4878    0.3362 Cl  0  0  0  0  0  0  0  0  0  0  0  0
    1.8218    2.2399   -1.3523 H   0  0  0  0  0  0  0  0  0  0  0  0
    0.2211    2.2177   -2.1303 H   0  0  0  0  0  0  0  0  0  0  0  0
    0.3535    2.4740   -0.3739 H   0  0  0  0  0  0  0  0  0  0  0  0
    0.5316    0.0081   -3.0901 H   0  0  0  0  0  0  0  0  0  0  0  0
    0.4661   -3.3333   -0.4263 H   0  0  0  0  0  0  0  0  0  0  0  0
    0.6869   -1.8046    1.4900 H   0  0  0  0  0  0  0  0  0  0  0  0
    1.3334    0.3553    2.2864 H   0  0  0  0  0  0  0  0  0  0  0  0
    1.5114    1.7313    1.1714 H   0  0  0  0  0  0  0  0  0  0  0  0
   -0.9558    1.9346    1.0284 H   0  0  0  0  0  0  0  0  0  0  0  0
   -1.1338    0.5586    2.1434 H   0  0  0  0  0  0  0  0  0  0  0  0
    1.1897   -4.3134   -2.1306 H   0  0  0  0  0  0  0  0  0  0  0  0
   -0.5828   -4.1927   -2.0222 H   0  0  0  0  0  0  0  0  0  0  0  0
   -0.7518   -4.4680   -4.4808 H   0  0  0  0  0  0  0  0  0  0  0  0
    1.0207   -4.5886   -4.5891 H   0  0  0  0  0  0  0  0  0  0  0  0
    0.6261   -6.8703   -5.6465 H   0  0  0  0  0  0  0  0  0  0  0  0
   -0.2479   -8.1184   -4.7264 H   0  0  0  0  0  0  0  0  0  0  0  0
   -1.1283   -6.7195   -5.3869 H   0  0  0  0  0  0  0  0  0  0  0  0
   -0.8101   -8.2140   -2.6879 H   0  0  0  0  0  0  0  0  0  0  0  0
   -0.8936  -10.2131   -1.2594 H   0  0  0  0  0  0  0  0  0  0  0  0
    3.2193   -9.6996   -0.2522 H   0  0  0  0  0  0  0  0  0  0  0  0
    4.7669   -8.7966   -0.4264 H   0  0  0  0  0  0  0  0  0  0  0  0
    6.8770   -7.5101   -0.6692 H   0  0  0  0  0  0  0  0  0  0  0  0
    6.8841   -5.4944   -2.1231 H   0  0  0  0  0  0  0  0  0  0  0  0
    4.8164   -4.8286   -3.2775 H   0  0  0  0  0  0  0  0  0  0  0  0
  1  2  1  0  0  0  0
  1 33  1  0  0  0  0
  1 34  1  0  0  0  0
  1 35  1  0  0  0  0
  2  7  2  0  0  0  0
  2  3  1  0  0  0  0
  3  4  2  0  0  0  0
  3 36  1  0  0  0  0
  4  5  1  0  0  0  0
  4 13  1  0  0  0  0
  5  6  2  0  0  0  0
  5 37  1  0  0  0  0
  6  7  1  0  0  0  0
  6 38  1  0  0  0  0
  7  8  1  0  0  0  0
  8  9  1  0  0  0  0
  8 39  1  0  0  0  0
  8 40  1  0  0  0  0
  9 10  1  0  0  0  0
  9 41  1  0  0  0  0
  9 42  1  0  0  0  0
 10 11  2  0  0  0  0
 10 12  1  0  0  0  0
 13 14  1  0  0  0  0
 14 15  1  0  0  0  0
 14 43  1  0  0  0  0
 14 44  1  0  0  0  0
 15 16  1  0  0  0  0
 15 45  1  0  0  0  0
 15 46  1  0  0  0  0
 16 17  1  1  0  0  0
 16 18  1  0  0  0  0
 16 19  1  0  0  0  0
 18 47  1  0  0  0  0
 18 48  1  0  0  0  0
 18 49  1  0  0  0  0
 19 20  1  0  0  0  0
 20 25  2  0  0  0  0
 20 21  1  0  0  0  0
 21 22  2  0  0  0  0
 21 50  1  0  0  0  0
 22 23  1  0  0  0  0
 22 51  1  0  0  0  0
 23 24  2  0  0  0  0
 23 32  1  0  0  0  0
 24 25  1  0  0  0  0
 24 52  1  0  0  0  0
 25 26  1  0  0  0  0
 26 31  2  0  0  0  0
 26 27  1  0  0  0  0
 27 28  2  0  0  0  0
 27 53  1  0  0  0  0
 28 29  1  0  0  0  0
 28 54  1  0  0  0  0
 29 30  2  0  0  0  0
 29 55  1  0  0  0  0
 30 31  1  0  0  0  0
 30 56  1  0  0  0  0
M  CHG  1  12  -1
M  END
$$$$
