CHEMBL193426
 OpenBabel05272217113D

 60 63  0  0  0  0  0  0  0  0999 V2000
    0.4538    0.8208   -0.7297 C   0  0  0  0  0  0  0  0  0  0  0  0
   -0.1000   -0.3189    0.1277 C   0  0  0  0  0  0  0  0  0  0  0  0
    0.9282   -0.7006    1.1945 C   0  0  0  0  0  0  0  0  0  0  0  0
   -1.3390    0.1161    0.7772 N   0  0  0  0  0  0  0  0  0  0  0  0
   -2.4816   -0.7969    0.8612 C   0  0  0  0  0  0  0  0  0  0  0  0
   -2.3922   -1.5976    2.1347 C   0  0  0  0  0  0  0  0  0  0  0  0
   -1.9015   -2.8912    2.1080 C   0  0  0  0  0  0  0  0  0  0  0  0
   -1.8152   -3.6346    3.2719 C   0  0  0  0  0  0  0  0  0  0  0  0
   -2.2189   -3.0925    4.4773 C   0  0  0  0  0  0  0  0  0  0  0  0
   -2.7127   -1.7938    4.5135 C   0  0  0  0  0  0  0  0  0  0  0  0
   -2.7947   -1.0401    3.3335 C   0  0  0  0  0  0  0  0  0  0  0  0
   -3.2770    0.2272    3.3982 O   0  0  0  0  0  0  0  0  0  0  0  0
   -4.2923    0.4880    4.3682 C   0  0  0  0  0  0  0  0  0  0  0  0
   -3.8991   -0.0710    5.7100 C   0  0  0  0  0  0  0  0  0  0  0  0
   -3.1568   -1.1705    5.7789 C   0  0  0  0  0  0  0  0  0  0  0  0
   -5.6015   -0.1613    3.9152 C   0  0  0  0  0  0  0  0  0  0  0  0
   -4.4960    1.9994    4.4914 C   0  0  0  0  0  0  0  0  0  0  0  0
   -1.4277    1.3563    1.2973 C   0  0  0  0  0  0  0  0  0  0  0  0
   -2.4807    1.9619    1.2487 O   0  0  0  0  0  0  0  0  0  0  0  0
   -0.2454    1.9797    1.9264 C   0  0  0  0  0  0  0  0  0  0  0  0
    1.0384    1.6350    1.4966 C   0  0  0  0  0  0  0  0  0  0  0  0
    2.1395    2.2169    2.0833 C   0  0  0  0  0  0  0  0  0  0  0  0
    1.9736    3.1504    3.1066 C   0  0  0  0  0  0  0  0  0  0  0  0
    0.6921    3.4950    3.5369 C   0  0  0  0  0  0  0  0  0  0  0  0
   -0.4105    2.9186    2.9477 C   0  0  0  0  0  0  0  0  0  0  0  0
    3.1604    3.7765    3.7377 C   0  0  0  0  0  0  0  0  0  0  0  0
    4.4422    3.4385    3.3066 C   0  0  0  0  0  0  0  0  0  0  0  0
    5.5430    4.0248    3.8974 C   0  0  0  0  0  0  0  0  0  0  0  0
    5.3762    4.9463    4.9155 C   0  0  0  0  0  0  0  0  0  0  0  0
    4.1066    5.2856    5.3475 C   0  0  0  0  0  0  0  0  0  0  0  0
    2.9983    4.7097    4.7605 C   0  0  0  0  0  0  0  0  0  0  0  0
    1.4451    0.5522   -1.0949 H   0  0  0  0  0  0  0  0  0  0  0  0
   -0.2105    0.9944   -1.5763 H   0  0  0  0  0  0  0  0  0  0  0  0
    0.5213    1.7278   -0.1289 H   0  0  0  0  0  0  0  0  0  0  0  0
   -0.3051   -1.1827   -0.5047 H   0  0  0  0  0  0  0  0  0  0  0  0
    0.6238   -0.2883    2.1565 H   0  0  0  0  0  0  0  0  0  0  0  0
    0.9900   -1.7863    1.2677 H   0  0  0  0  0  0  0  0  0  0  0  0
    1.9034   -0.2989    0.9194 H   0  0  0  0  0  0  0  0  0  0  0  0
   -3.4074   -0.2216    0.8580 H   0  0  0  0  0  0  0  0  0  0  0  0
   -2.4706   -1.4724    0.0058 H   0  0  0  0  0  0  0  0  0  0  0  0
   -1.5836   -3.3242    1.1711 H   0  0  0  0  0  0  0  0  0  0  0  0
   -1.4309   -4.6433    3.2381 H   0  0  0  0  0  0  0  0  0  0  0  0
   -2.1516   -3.6741    5.3848 H   0  0  0  0  0  0  0  0  0  0  0  0
   -4.2285    0.4168    6.6155 H   0  0  0  0  0  0  0  0  0  0  0  0
   -2.8752   -1.5894    6.7336 H   0  0  0  0  0  0  0  0  0  0  0  0
   -5.4583   -1.2373    3.8165 H   0  0  0  0  0  0  0  0  0  0  0  0
   -6.3792    0.0356    4.6531 H   0  0  0  0  0  0  0  0  0  0  0  0
   -5.8998    0.2552    2.9531 H   0  0  0  0  0  0  0  0  0  0  0  0
   -4.7999    2.4049    3.5264 H   0  0  0  0  0  0  0  0  0  0  0  0
   -5.2705    2.2025    5.2311 H   0  0  0  0  0  0  0  0  0  0  0  0
   -3.5628    2.4674    4.8046 H   0  0  0  0  0  0  0  0  0  0  0  0
    1.1671    0.9121    0.7046 H   0  0  0  0  0  0  0  0  0  0  0  0
    3.1321    1.9504    1.7514 H   0  0  0  0  0  0  0  0  0  0  0  0
    0.5649    4.2175    4.3294 H   0  0  0  0  0  0  0  0  0  0  0  0
   -1.4027    3.1888    3.2779 H   0  0  0  0  0  0  0  0  0  0  0  0
    4.5736    2.7189    2.5120 H   0  0  0  0  0  0  0  0  0  0  0  0
    6.5366    3.7634    3.5644 H   0  0  0  0  0  0  0  0  0  0  0  0
    6.2405    5.4023    5.3752 H   0  0  0  0  0  0  0  0  0  0  0  0
    3.9824    6.0054    6.1430 H   0  0  0  0  0  0  0  0  0  0  0  0
    2.0074    4.9784    5.0958 H   0  0  0  0  0  0  0  0  0  0  0  0
  1  2  1  0  0  0  0
  1 32  1  0  0  0  0
  1 33  1  0  0  0  0
  1 34  1  0  0  0  0
  2  3  1  0  0  0  0
  2  4  1  0  0  0  0
  2 35  1  0  0  0  0
  3 36  1  0  0  0  0
  3 37  1  0  0  0  0
  3 38  1  0  0  0  0
  4  5  1  0  0  0  0
  4 18  1  0  0  0  0
  5  6  1  0  0  0  0
  5 39  1  0  0  0  0
  5 40  1  0  0  0  0
  6 11  2  0  0  0  0
  6  7  1  0  0  0  0
  7  8  2  0  0  0  0
  7 41  1  0  0  0  0
  8  9  1  0  0  0  0
  8 42  1  0  0  0  0
  9 10  2  0  0  0  0
  9 43  1  0  0  0  0
 10 15  1  0  0  0  0
 10 11  1  0  0  0  0
 11 12  1  0  0  0  0
 12 13  1  0  0  0  0
 13 14  1  0  0  0  0
 13 16  1  0  0  0  0
 13 17  1  0  0  0  0
 14 15  2  0  0  0  0
 14 44  1  0  0  0  0
 15 45  1  0  0  0  0
 16 46  1  0  0  0  0
 16 47  1  0  0  0  0
 16 48  1  0  0  0  0
 17 49  1  0  0  0  0
 17 50  1  0  0  0  0
 17 51  1  0  0  0  0
 18 19  2  0  0  0  0
 18 20  1  0  0  0  0
 20 25  2  0  0  0  0
 20 21  1  0  0  0  0
 21 22  2  0  0  0  0
 21 52  1  0  0  0  0
 22 23  1  0  0  0  0
 22 53  1  0  0  0  0
 23 24  2  0  0  0  0
 23 26  1  0  0  0  0
 24 25  1  0  0  0  0
 24 54  1  0  0  0  0
 25 55  1  0  0  0  0
 26 31  2  0  0  0  0
 26 27  1  0  0  0  0
 27 28  2  0  0  0  0
 27 56  1  0  0  0  0
 28 29  1  0  0  0  0
 28 57  1  0  0  0  0
 29 30  2  0  0  0  0
 29 58  1  0  0  0  0
 30 31  1  0  0  0  0
 30 59  1  0  0  0  0
 31 60  1  0  0  0  0
M  END
$$$$
