CHEMBL470322
 OpenBabel05272217113D

 67 70  0  0  0  0  0  0  0  0999 V2000
   -2.3160    0.6463    1.1017 C   0  0  0  0  0  0  0  0  0  0  0  0
   -1.9989   -0.8260    1.0483 C   0  0  0  0  0  0  0  0  0  0  0  0
   -1.8494   -1.4572   -0.1717 C   0  0  0  0  0  0  0  0  0  0  0  0
   -1.5590   -2.8079   -0.2214 C   0  0  0  0  0  0  0  0  0  0  0  0
   -1.4169   -3.5305    0.9490 C   0  0  0  0  0  0  0  0  0  0  0  0
   -1.5650   -2.9041    2.1711 C   0  0  0  0  0  0  0  0  0  0  0  0
   -1.8512   -1.5474    2.2238 C   0  0  0  0  0  0  0  0  0  0  0  0
   -1.9918   -0.9276    3.4250 O   0  0  0  0  0  0  0  0  0  0  0  0
   -1.6964   -1.6985    4.5913 C   0  0  0  0  0  0  0  0  0  0  0  0
   -0.2476   -2.1861    4.5270 C   0  0  0  0  0  0  0  0  0  0  0  0
   -1.8880   -0.8319    5.8376 C   0  0  0  0  0  0  0  0  0  0  0  0
   -2.6232   -2.8850    4.6573 C   0  0  0  0  0  0  0  0  0  0  0  0
   -3.4592   -3.0547    3.7862 O   0  0  0  0  0  0  0  0  0  0  0  0
   -2.5370   -3.6753    5.5817 O   0  5  0  0  0  0  0  0  0  0  0  0
   -1.3975   -3.4940   -1.5534 C   0  0  0  0  0  0  0  0  0  0  0  0
    0.0052   -3.4265   -1.9706 N   0  0  0  0  0  0  0  0  0  0  0  0
    0.3880   -3.9781   -3.1392 C   0  0  0  0  0  0  0  0  0  0  0  0
   -0.4307   -4.5317   -3.8471 O   0  0  0  0  0  0  0  0  0  0  0  0
    1.8026   -3.9101   -3.5599 C   0  0  0  0  0  0  0  0  0  0  0  0
    2.3468   -4.4344   -4.7525 C   0  0  0  0  0  0  0  0  0  0  0  0
    3.6798   -4.1343   -4.7071 C   0  0  0  0  0  0  0  0  0  0  0  0
    3.8938   -3.4657   -3.5380 N   0  0  0  0  0  0  0  0  0  0  0  0
    2.7892   -3.3435   -2.8938 N   0  0  0  0  0  0  0  0  0  0  0  0
    5.1909   -2.9561   -3.0865 C   0  0  0  0  0  0  0  0  0  0  0  0
    4.6952   -4.4710   -5.7294 C   0  0  0  0  0  0  0  0  0  0  0  0
    4.4578   -5.5044   -6.6366 C   0  0  0  0  0  0  0  0  0  0  0  0
    5.4051   -5.8156   -7.5881 C   0  0  0  0  0  0  0  0  0  0  0  0
    6.5964   -5.1010   -7.6445 C   0  0  0  0  0  0  0  0  0  0  0  0
    6.8358   -4.0712   -6.7415 C   0  0  0  0  0  0  0  0  0  0  0  0
    5.8896   -3.7520   -5.7917 C   0  0  0  0  0  0  0  0  0  0  0  0
    7.5540   -5.4183   -8.6091 N   0  0  0  0  0  0  0  0  0  0  0  0
    8.8619   -4.7441   -8.6285 C   0  0  0  0  0  0  0  0  0  0  0  0
    9.9568   -5.8149   -8.6959 C   0  0  0  0  0  0  0  0  0  0  0  0
    9.6827   -6.7005   -9.7843 O   0  0  0  0  0  0  0  0  0  0  0  0
    8.4574   -7.4255   -9.6546 C   0  0  0  0  0  0  0  0  0  0  0  0
    7.2878   -6.4412   -9.6329 C   0  0  0  0  0  0  0  0  0  0  0  0
   -1.3878    1.2174    1.1211 H   0  0  0  0  0  0  0  0  0  0  0  0
   -2.8960    0.9252    0.2220 H   0  0  0  0  0  0  0  0  0  0  0  0
   -2.8936    0.8611    2.0008 H   0  0  0  0  0  0  0  0  0  0  0  0
   -1.9599   -0.8950   -1.0872 H   0  0  0  0  0  0  0  0  0  0  0  0
   -1.1904   -4.5857    0.9075 H   0  0  0  0  0  0  0  0  0  0  0  0
   -1.4539   -3.4689    3.0849 H   0  0  0  0  0  0  0  0  0  0  0  0
    0.4266   -1.3423    4.6739 H   0  0  0  0  0  0  0  0  0  0  0  0
   -0.0784   -2.9267    5.3086 H   0  0  0  0  0  0  0  0  0  0  0  0
   -0.0588   -2.6366    3.5526 H   0  0  0  0  0  0  0  0  0  0  0  0
   -2.8957   -0.4165    5.8399 H   0  0  0  0  0  0  0  0  0  0  0  0
   -1.7442   -1.4415    6.7297 H   0  0  0  0  0  0  0  0  0  0  0  0
   -1.1605   -0.0202    5.8310 H   0  0  0  0  0  0  0  0  0  0  0  0
   -1.7001   -4.5373   -1.4638 H   0  0  0  0  0  0  0  0  0  0  0  0
   -2.0217   -2.9972   -2.2961 H   0  0  0  0  0  0  0  0  0  0  0  0
    0.6585   -2.9848   -1.4057 H   0  0  0  0  0  0  0  0  0  0  0  0
    1.8212   -4.9615   -5.5350 H   0  0  0  0  0  0  0  0  0  0  0  0
    5.3371   -1.9456   -3.4681 H   0  0  0  0  0  0  0  0  0  0  0  0
    5.2157   -2.9401   -1.9969 H   0  0  0  0  0  0  0  0  0  0  0  0
    5.9851   -3.6034   -3.4585 H   0  0  0  0  0  0  0  0  0  0  0  0
    3.5327   -6.0601   -6.5930 H   0  0  0  0  0  0  0  0  0  0  0  0
    5.2220   -6.6155   -8.2902 H   0  0  0  0  0  0  0  0  0  0  0  0
    7.7622   -3.5180   -6.7874 H   0  0  0  0  0  0  0  0  0  0  0  0
    6.0740   -2.9488   -5.0936 H   0  0  0  0  0  0  0  0  0  0  0  0
    8.9279   -4.0961   -9.5024 H   0  0  0  0  0  0  0  0  0  0  0  0
    8.9830   -4.1518   -7.7216 H   0  0  0  0  0  0  0  0  0  0  0  0
   10.9243   -5.3371   -8.8501 H   0  0  0  0  0  0  0  0  0  0  0  0
    9.9727   -6.3786   -7.7631 H   0  0  0  0  0  0  0  0  0  0  0  0
    8.3462   -8.1064  -10.4985 H   0  0  0  0  0  0  0  0  0  0  0  0
    8.4679   -7.9950   -8.7253 H   0  0  0  0  0  0  0  0  0  0  0  0
    6.3672   -6.9721   -9.3908 H   0  0  0  0  0  0  0  0  0  0  0  0
    7.1927   -5.9669  -10.6097 H   0  0  0  0  0  0  0  0  0  0  0  0
  1  2  1  0  0  0  0
  1 37  1  0  0  0  0
  1 38  1  0  0  0  0
  1 39  1  0  0  0  0
  2  7  2  0  0  0  0
  2  3  1  0  0  0  0
  3  4  2  0  0  0  0
  3 40  1  0  0  0  0
  4  5  1  0  0  0  0
  4 15  1  0  0  0  0
  5  6  2  0  0  0  0
  5 41  1  0  0  0  0
  6  7  1  0  0  0  0
  6 42  1  0  0  0  0
  7  8  1  0  0  0  0
  8  9  1  0  0  0  0
  9 10  1  0  0  0  0
  9 11  1  0  0  0  0
  9 12  1  0  0  0  0
 10 43  1  0  0  0  0
 10 44  1  0  0  0  0
 10 45  1  0  0  0  0
 11 46  1  0  0  0  0
 11 47  1  0  0  0  0
 11 48  1  0  0  0  0
 12 13  2  0  0  0  0
 12 14  1  0  0  0  0
 15 16  1  0  0  0  0
 15 49  1  0  0  0  0
 15 50  1  0  0  0  0
 16 17  1  0  0  0  0
 16 51  1  0  0  0  0
 17 18  2  0  0  0  0
 17 19  1  0  0  0  0
 19 23  2  0  0  0  0
 19 20  1  0  0  0  0
 20 21  2  0  0  0  0
 20 52  1  0  0  0  0
 21 22  1  0  0  0  0
 21 25  1  0  0  0  0
 22 23  1  0  0  0  0
 22 24  1  0  0  0  0
 24 53  1  0  0  0  0
 24 54  1  0  0  0  0
 24 55  1  0  0  0  0
 25 30  2  0  0  0  0
 25 26  1  0  0  0  0
 26 27  2  0  0  0  0
 26 56  1  0  0  0  0
 27 28  1  0  0  0  0
 27 57  1  0  0  0  0
 28 29  2  0  0  0  0
 28 31  1  0  0  0  0
 29 30  1  0  0  0  0
 29 58  1  0  0  0  0
 30 59  1  0  0  0  0
 31 36  1  0  0  0  0
 31 32  1  0  0  0  0
 32 33  1  0  0  0  0
 32 60  1  0  0  0  0
 32 61  1  0  0  0  0
 33 34  1  0  0  0  0
 33 62  1  0  0  0  0
 33 63  1  0  0  0  0
 34 35  1  0  0  0  0
 35 36  1  0  0  0  0
 35 64  1  0  0  0  0
 35 65  1  0  0  0  0
 36 66  1  0  0  0  0
 36 67  1  0  0  0  0
M  CHG  1  14  -1
M  END
$$$$
