CHEMBL391470
 OpenBabel05272217113D

 59 61  0  0  1  0  0  0  0  0999 V2000
   -0.0022    1.4955    0.2721 C   0  0  0  0  0  0  0  0  0  0  0  0
    0.0044   -0.0103    0.0011 C   0  0  0  0  0  0  0  0  0  0  0  0
   -1.4106   -0.5289    0.0121 C   0  0  0  0  0  0  0  0  0  0  0  0
   -1.9729   -0.9726    1.1969 C   0  0  0  0  0  0  0  0  0  0  0  0
   -3.2695   -1.4497    1.2189 C   0  0  0  0  0  0  0  0  0  0  0  0
   -4.0158   -1.4871    0.0519 C   0  0  0  0  0  0  0  0  0  0  0  0
   -3.4506   -1.0392   -1.1486 C   0  0  0  0  0  0  0  0  0  0  0  0
   -2.1418   -0.5542   -1.1568 C   0  0  0  0  0  0  0  0  0  0  0  0
   -4.2372   -1.0747   -2.3982 C   0  0  0  0  0  0  0  0  0  0  0  0
   -5.4748   -1.4969   -2.5134 N   0  0  0  0  0  0  0  0  0  0  0  0
   -5.8509   -1.3781   -3.7963 C   0  0  0  0  0  0  0  0  0  0  0  0
   -4.8136   -0.8689   -4.4845 C   0  0  0  0  0  0  0  0  0  0  0  0
   -3.8079   -0.6745   -3.6078 O   0  0  0  0  0  0  0  0  0  0  0  0
   -5.2898   -1.9566    0.0722 O   0  0  0  0  0  0  0  0  0  0  0  0
   -5.8405   -2.2834    1.3497 C   0  0  2  0  0  0  0  0  0  0  0  0
   -5.4623   -1.5863    2.0975 H   0  0  0  0  0  0  0  0  0  0  0  0
   -5.4354   -3.7088    1.7303 C   0  0  0  0  0  0  0  0  0  0  0  0
   -7.3662   -2.1862    1.2874 C   0  0  0  0  0  0  0  0  0  0  0  0
   -7.7747   -0.7344    1.0299 C   0  0  0  0  0  0  0  0  0  0  0  0
   -9.1996   -0.6436    0.9717 O   0  0  0  0  0  0  0  0  0  0  0  0
   -9.7308    0.5870    0.7478 C   0  0  0  0  0  0  0  0  0  0  0  0
   -8.8974    1.6839    0.5817 C   0  0  0  0  0  0  0  0  0  0  0  0
   -9.4398    2.9336    0.3538 C   0  0  0  0  0  0  0  0  0  0  0  0
  -10.8121    3.0921    0.2911 C   0  0  0  0  0  0  0  0  0  0  0  0
  -11.6446    2.0009    0.4567 C   0  0  0  0  0  0  0  0  0  0  0  0
  -11.1069    0.7478    0.6792 C   0  0  0  0  0  0  0  0  0  0  0  0
  -13.1397    2.1773    0.3883 C   0  0  0  0  0  0  0  0  0  0  0  0
  -11.4012    4.4567    0.0424 C   0  0  0  0  0  0  0  0  0  0  0  0
  -11.7529    5.1119    1.3795 C   0  0  0  0  0  0  0  0  0  0  0  0
  -12.3419    6.4765    1.1308 C   0  0  0  0  0  0  0  0  0  0  0  0
  -12.4687    6.8870   -0.0102 O   0  0  0  0  0  0  0  0  0  0  0  0
  -12.6917    7.1700    2.0705 O   0  5  0  0  0  0  0  0  0  0  0  0
    1.0212    1.8705    0.2641 H   0  0  0  0  0  0  0  0  0  0  0  0
   -0.5806    2.0013   -0.5010 H   0  0  0  0  0  0  0  0  0  0  0  0
   -0.4518    1.6873    1.2463 H   0  0  0  0  0  0  0  0  0  0  0  0
    0.4540   -0.2022   -0.9732 H   0  0  0  0  0  0  0  0  0  0  0  0
    0.5828   -0.5161    0.7741 H   0  0  0  0  0  0  0  0  0  0  0  0
   -1.3949   -0.9460    2.1088 H   0  0  0  0  0  0  0  0  0  0  0  0
   -3.7017   -1.7942    2.1468 H   0  0  0  0  0  0  0  0  0  0  0  0
   -1.7009   -0.2034   -2.0782 H   0  0  0  0  0  0  0  0  0  0  0  0
   -6.8151   -1.6442   -4.2036 H   0  0  0  0  0  0  0  0  0  0  0  0
   -4.7917   -0.6522   -5.5423 H   0  0  0  0  0  0  0  0  0  0  0  0
   -5.8136   -4.4059    0.9825 H   0  0  0  0  0  0  0  0  0  0  0  0
   -4.3485   -3.7781    1.7747 H   0  0  0  0  0  0  0  0  0  0  0  0
   -5.8555   -3.9581    2.7047 H   0  0  0  0  0  0  0  0  0  0  0  0
   -7.7377   -2.8169    0.4797 H   0  0  0  0  0  0  0  0  0  0  0  0
   -7.7905   -2.5206    2.2341 H   0  0  0  0  0  0  0  0  0  0  0  0
   -7.4031   -0.1037    1.8375 H   0  0  0  0  0  0  0  0  0  0  0  0
   -7.3503   -0.4000    0.0832 H   0  0  0  0  0  0  0  0  0  0  0  0
   -7.8256    1.5607    0.6310 H   0  0  0  0  0  0  0  0  0  0  0  0
   -8.7916    3.7878    0.2249 H   0  0  0  0  0  0  0  0  0  0  0  0
  -11.7575   -0.1052    0.8040 H   0  0  0  0  0  0  0  0  0  0  0  0
  -13.4742    2.0464   -0.6408 H   0  0  0  0  0  0  0  0  0  0  0  0
  -13.6225    1.4355    1.0244 H   0  0  0  0  0  0  0  0  0  0  0  0
  -13.4036    3.1776    0.7317 H   0  0  0  0  0  0  0  0  0  0  0  0
  -10.6751    5.0752   -0.4854 H   0  0  0  0  0  0  0  0  0  0  0  0
  -12.3027    4.3586   -0.5624 H   0  0  0  0  0  0  0  0  0  0  0  0
  -12.4789    4.4934    1.9073 H   0  0  0  0  0  0  0  0  0  0  0  0
  -10.8514    5.2100    1.9843 H   0  0  0  0  0  0  0  0  0  0  0  0
  1  2  1  0  0  0  0
  1 33  1  0  0  0  0
  1 34  1  0  0  0  0
  1 35  1  0  0  0  0
  2  3  1  0  0  0  0
  2 36  1  0  0  0  0
  2 37  1  0  0  0  0
  3  8  2  0  0  0  0
  3  4  1  0  0  0  0
  4  5  2  0  0  0  0
  4 38  1  0  0  0  0
  5  6  1  0  0  0  0
  5 39  1  0  0  0  0
  6  7  2  0  0  0  0
  6 14  1  0  0  0  0
  7  8  1  0  0  0  0
  7  9  1  0  0  0  0
  8 40  1  0  0  0  0
  9 13  1  0  0  0  0
  9 10  2  0  0  0  0
 10 11  1  0  0  0  0
 11 12  2  0  0  0  0
 11 41  1  0  0  0  0
 12 13  1  0  0  0  0
 12 42  1  0  0  0  0
 14 15  1  0  0  0  0
 15 16  1  1  0  0  0
 15 17  1  0  0  0  0
 15 18  1  0  0  0  0
 17 43  1  0  0  0  0
 17 44  1  0  0  0  0
 17 45  1  0  0  0  0
 18 19  1  0  0  0  0
 18 46  1  0  0  0  0
 18 47  1  0  0  0  0
 19 20  1  0  0  0  0
 19 48  1  0  0  0  0
 19 49  1  0  0  0  0
 20 21  1  0  0  0  0
 21 26  2  0  0  0  0
 21 22  1  0  0  0  0
 22 23  2  0  0  0  0
 22 50  1  0  0  0  0
 23 24  1  0  0  0  0
 23 51  1  0  0  0  0
 24 25  2  0  0  0  0
 24 28  1  0  0  0  0
 25 26  1  0  0  0  0
 25 27  1  0  0  0  0
 26 52  1  0  0  0  0
 27 53  1  0  0  0  0
 27 54  1  0  0  0  0
 27 55  1  0  0  0  0
 28 29  1  0  0  0  0
 28 56  1  0  0  0  0
 28 57  1  0  0  0  0
 29 30  1  0  0  0  0
 29 58  1  0  0  0  0
 29 59  1  0  0  0  0
 30 31  2  0  0  0  0
 30 32  1  0  0  0  0
M  CHG  1  32  -1
M  END
$$$$
