CHEMBL94306
 OpenBabel05272217113D

 61 64  0  0  1  0  0  0  0  0999 V2000
    0.3723    1.6617    0.4348 C   0  0  0  0  0  0  0  0  0  0  0  0
    0.3494    0.1347    0.5280 C   0  0  0  0  0  0  0  0  0  0  0  0
    0.6416   -0.4647   -0.8490 C   0  0  0  0  0  0  0  0  0  0  0  0
    0.6190   -1.9688   -0.7572 C   0  0  0  0  0  0  0  0  0  0  0  0
    1.7953   -2.6666   -0.5629 C   0  0  0  0  0  0  0  0  0  0  0  0
    1.7745   -4.0509   -0.4784 C   0  0  0  0  0  0  0  0  0  0  0  0
    0.5722   -4.7346   -0.5890 C   0  0  0  0  0  0  0  0  0  0  0  0
   -0.6036   -4.0368   -0.7832 C   0  0  0  0  0  0  0  0  0  0  0  0
   -0.5834   -2.6519   -0.8620 C   0  0  0  0  0  0  0  0  0  0  0  0
   -1.7419   -1.9645   -1.0473 O   0  0  0  0  0  0  0  0  0  0  0  0
   -2.9430   -2.7323   -1.1467 C   0  0  0  0  0  0  0  0  0  0  0  0
   -4.1332   -1.7930   -1.3516 C   0  0  0  0  0  0  0  0  0  0  0  0
   -5.4192   -2.6151   -1.4580 C   0  0  0  0  0  0  0  0  0  0  0  0
   -6.5309   -1.7378   -1.6494 O   0  0  0  0  0  0  0  0  0  0  0  0
   -7.7573   -2.3119   -1.7640 C   0  0  0  0  0  0  0  0  0  0  0  0
   -7.8888   -3.6911   -1.6880 C   0  0  0  0  0  0  0  0  0  0  0  0
   -9.1365   -4.2722   -1.8044 C   0  0  0  0  0  0  0  0  0  0  0  0
  -10.2540   -3.4806   -1.9965 C   0  0  0  0  0  0  0  0  0  0  0  0
  -10.1256   -2.1063   -2.0730 C   0  0  0  0  0  0  0  0  0  0  0  0
   -8.8805   -1.5198   -1.9515 C   0  0  0  0  0  0  0  0  0  0  0  0
  -11.3454   -1.2466   -2.2828 C   0  0  1  0  0  0  0  0  0  0  0  0
  -12.1588   -1.7217   -3.4786 C   0  0  0  0  0  0  0  0  0  0  0  0
  -11.7120   -1.7262   -4.6057 O   0  0  0  0  0  0  0  0  0  0  0  0
  -13.3862   -2.1296   -3.2032 N   0  0  0  0  0  0  0  0  0  0  0  0
  -13.9052   -2.1348   -1.9614 C   0  0  0  0  0  0  0  0  0  0  0  0
  -15.0151   -2.4893   -1.6141 O   0  0  0  0  0  0  0  0  0  0  0  0
  -12.5821   -1.4996   -0.9422 S   0  0  0  0  0  0  0  0  0  0  0  0
    2.9322   -4.7379   -0.2876 O   0  0  0  0  0  0  0  0  0  0  0  0
    2.8658   -6.0933   -0.2190 C   0  0  0  0  0  0  0  0  0  0  0  0
    2.9883   -6.8545   -1.3727 C   0  0  0  0  0  0  0  0  0  0  0  0
    2.9203   -8.2322   -1.3001 C   0  0  0  0  0  0  0  0  0  0  0  0
    2.7300   -8.8529   -0.0793 C   0  0  0  0  0  0  0  0  0  0  0  0
    2.6076   -8.0968    1.0719 C   0  0  0  0  0  0  0  0  0  0  0  0
    2.6810   -6.7190    1.0057 C   0  0  0  0  0  0  0  0  0  0  0  0
    1.3550    1.9904    0.0966 H   0  0  0  0  0  0  0  0  0  0  0  0
   -0.3859    1.9939   -0.2743 H   0  0  0  0  0  0  0  0  0  0  0  0
    0.1642    2.0888    1.4158 H   0  0  0  0  0  0  0  0  0  0  0  0
    1.1076   -0.1974    1.2372 H   0  0  0  0  0  0  0  0  0  0  0  0
   -0.6333   -0.1939    0.8663 H   0  0  0  0  0  0  0  0  0  0  0  0
   -0.1166   -0.1326   -1.5581 H   0  0  0  0  0  0  0  0  0  0  0  0
    1.6242   -0.1361   -1.1872 H   0  0  0  0  0  0  0  0  0  0  0  0
    2.7311   -2.1343   -0.4771 H   0  0  0  0  0  0  0  0  0  0  0  0
    0.5560   -5.8125   -0.5236 H   0  0  0  0  0  0  0  0  0  0  0  0
   -1.5394   -4.5690   -0.8693 H   0  0  0  0  0  0  0  0  0  0  0  0
   -2.8689   -3.4149   -1.9933 H   0  0  0  0  0  0  0  0  0  0  0  0
   -3.0853   -3.3046   -0.2300 H   0  0  0  0  0  0  0  0  0  0  0  0
   -4.2074   -1.1105   -0.5050 H   0  0  0  0  0  0  0  0  0  0  0  0
   -3.9909   -1.2208   -2.2683 H   0  0  0  0  0  0  0  0  0  0  0  0
   -5.3451   -3.2977   -2.3046 H   0  0  0  0  0  0  0  0  0  0  0  0
   -5.5616   -3.1873   -0.5413 H   0  0  0  0  0  0  0  0  0  0  0  0
   -7.0163   -4.3098   -1.5384 H   0  0  0  0  0  0  0  0  0  0  0  0
   -9.2393   -5.3457   -1.7457 H   0  0  0  0  0  0  0  0  0  0  0  0
  -11.2287   -3.9368   -2.0872 H   0  0  0  0  0  0  0  0  0  0  0  0
   -8.7812   -0.4458   -2.0068 H   0  0  0  0  0  0  0  0  0  0  0  0
  -11.0742   -0.1953   -2.3791 H   0  0  0  0  0  0  0  0  0  0  0  0
  -13.9419   -2.4410   -3.9348 H   0  0  0  0  0  0  0  0  0  0  0  0
    3.1362   -6.3701   -2.3266 H   0  0  0  0  0  0  0  0  0  0  0  0
    3.0156   -8.8251   -2.1978 H   0  0  0  0  0  0  0  0  0  0  0  0
    2.6765   -9.9302   -0.0248 H   0  0  0  0  0  0  0  0  0  0  0  0
    2.4587   -8.5841    2.0241 H   0  0  0  0  0  0  0  0  0  0  0  0
    2.5901   -6.1290    1.9058 H   0  0  0  0  0  0  0  0  0  0  0  0
  1  2  1  0  0  0  0
  1 35  1  0  0  0  0
  1 36  1  0  0  0  0
  1 37  1  0  0  0  0
  2  3  1  0  0  0  0
  2 38  1  0  0  0  0
  2 39  1  0  0  0  0
  3  4  1  0  0  0  0
  3 40  1  0  0  0  0
  3 41  1  0  0  0  0
  4  9  2  0  0  0  0
  4  5  1  0  0  0  0
  5  6  2  0  0  0  0
  5 42  1  0  0  0  0
  6  7  1  0  0  0  0
  6 28  1  0  0  0  0
  7  8  2  0  0  0  0
  7 43  1  0  0  0  0
  8  9  1  0  0  0  0
  8 44  1  0  0  0  0
  9 10  1  0  0  0  0
 10 11  1  0  0  0  0
 11 12  1  0  0  0  0
 11 45  1  0  0  0  0
 11 46  1  0  0  0  0
 12 13  1  0  0  0  0
 12 47  1  0  0  0  0
 12 48  1  0  0  0  0
 13 14  1  0  0  0  0
 13 49  1  0  0  0  0
 13 50  1  0  0  0  0
 14 15  1  0  0  0  0
 15 20  2  0  0  0  0
 15 16  1  0  0  0  0
 16 17  2  0  0  0  0
 16 51  1  0  0  0  0
 17 18  1  0  0  0  0
 17 52  1  0  0  0  0
 18 19  2  0  0  0  0
 18 53  1  0  0  0  0
 19 20  1  0  0  0  0
 19 21  1  0  0  0  0
 20 54  1  0  0  0  0
 21 27  1  0  0  0  0
 21 22  1  0  0  0  0
 21 55  1  6  0  0  0
 22 23  2  0  0  0  0
 22 24  1  0  0  0  0
 24 25  1  0  0  0  0
 24 56  1  0  0  0  0
 25 26  2  0  0  0  0
 25 27  1  0  0  0  0
 28 29  1  0  0  0  0
 29 34  2  0  0  0  0
 29 30  1  0  0  0  0
 30 31  2  0  0  0  0
 30 57  1  0  0  0  0
 31 32  1  0  0  0  0
 31 58  1  0  0  0  0
 32 33  2  0  0  0  0
 32 59  1  0  0  0  0
 33 34  1  0  0  0  0
 33 60  1  0  0  0  0
 34 61  1  0  0  0  0
M  END
$$$$
