CHEMBL428255
 OpenBabel05272217113D

 44 46  0  0  0  0  0  0  0  0999 V2000
   -0.8979    0.1249    1.7378 C   0  0  0  0  0  0  0  0  0  0  0  0
   -0.5275   -1.2862    1.3601 C   0  0  0  0  0  0  0  0  0  0  0  0
   -0.6134   -1.6934    0.0431 C   0  0  0  0  0  0  0  0  0  0  0  0
   -0.2720   -2.9941   -0.3047 C   0  0  0  0  0  0  0  0  0  0  0  0
    0.1556   -3.8841    0.6728 C   0  0  0  0  0  0  0  0  0  0  0  0
    0.2407   -3.4748    1.9887 C   0  0  0  0  0  0  0  0  0  0  0  0
   -0.0952   -2.1738    2.3341 C   0  0  0  0  0  0  0  0  0  0  0  0
   -0.0053   -1.7700    3.6297 O   0  0  0  0  0  0  0  0  0  0  0  0
    0.4473   -2.7361    4.5804 C   0  0  0  0  0  0  0  0  0  0  0  0
    0.4825   -2.1128    5.9521 C   0  0  0  0  0  0  0  0  0  0  0  0
    0.1508   -0.9491    6.1016 O   0  0  0  0  0  0  0  0  0  0  0  0
    0.8427   -2.7722    6.9122 O   0  5  0  0  0  0  0  0  0  0  0  0
   -0.3816   -3.5152   -1.9844 S   0  0  0  0  0  0  0  0  0  0  0  0
    0.1541   -5.2477   -1.9422 C   0  0  0  0  0  0  0  0  0  0  0  0
    0.1067   -5.8222   -3.3346 C   0  0  0  0  0  0  0  0  0  0  0  0
   -1.0376   -6.2997   -3.8809 C   0  0  0  0  0  0  0  0  0  0  0  0
   -0.5538   -6.8084   -5.4045 S   0  0  0  0  0  0  0  0  0  0  0  0
    1.0719   -6.4192   -5.3424 N   0  0  0  0  0  0  0  0  0  0  0  0
    1.2324   -5.8923   -4.1461 C   0  0  0  0  0  0  0  0  0  0  0  0
    2.5545   -5.4019   -3.6844 C   0  0  0  0  0  0  0  0  0  0  0  0
    3.7012   -6.1586   -3.9170 C   0  0  0  0  0  0  0  0  0  0  0  0
    4.9284   -5.6977   -3.4853 C   0  0  0  0  0  0  0  0  0  0  0  0
    5.0213   -4.4871   -2.8225 C   0  0  0  0  0  0  0  0  0  0  0  0
    3.8862   -3.7320   -2.5885 C   0  0  0  0  0  0  0  0  0  0  0  0
    2.6547   -4.1802   -3.0217 C   0  0  0  0  0  0  0  0  0  0  0  0
    6.3640   -3.9893   -2.3531 C   0  0  0  0  0  0  0  0  0  0  0  0
    6.9534   -3.2177   -3.3602 F   0  0  0  0  0  0  0  0  0  0  0  0
    6.1962   -3.2080   -1.2048 F   0  0  0  0  0  0  0  0  0  0  0  0
    7.1888   -5.0802   -2.0585 F   0  0  0  0  0  0  0  0  0  0  0  0
   -0.0166    0.7626    1.6692 H   0  0  0  0  0  0  0  0  0  0  0  0
   -1.6666    0.4930    1.0584 H   0  0  0  0  0  0  0  0  0  0  0  0
   -1.2784    0.1396    2.7591 H   0  0  0  0  0  0  0  0  0  0  0  0
   -0.9462   -1.0009   -0.7158 H   0  0  0  0  0  0  0  0  0  0  0  0
    0.4210   -4.8957    0.4035 H   0  0  0  0  0  0  0  0  0  0  0  0
    0.5730   -4.1665    2.7487 H   0  0  0  0  0  0  0  0  0  0  0  0
   -0.2335   -3.5874    4.5856 H   0  0  0  0  0  0  0  0  0  0  0  0
    1.4477   -3.0726    4.3084 H   0  0  0  0  0  0  0  0  0  0  0  0
    1.1736   -5.3037   -1.5606 H   0  0  0  0  0  0  0  0  0  0  0  0
   -0.5093   -5.8174   -1.2914 H   0  0  0  0  0  0  0  0  0  0  0  0
   -2.0232   -6.3428   -3.4414 H   0  0  0  0  0  0  0  0  0  0  0  0
    3.6298   -7.1043   -4.4338 H   0  0  0  0  0  0  0  0  0  0  0  0
    5.8178   -6.2834   -3.6650 H   0  0  0  0  0  0  0  0  0  0  0  0
    3.9643   -2.7879   -2.0699 H   0  0  0  0  0  0  0  0  0  0  0  0
    1.7698   -3.5874   -2.8432 H   0  0  0  0  0  0  0  0  0  0  0  0
  1  2  1  0  0  0  0
  1 30  1  0  0  0  0
  1 31  1  0  0  0  0
  1 32  1  0  0  0  0
  2  7  2  0  0  0  0
  2  3  1  0  0  0  0
  3  4  2  0  0  0  0
  3 33  1  0  0  0  0
  4  5  1  0  0  0  0
  4 13  1  0  0  0  0
  5  6  2  0  0  0  0
  5 34  1  0  0  0  0
  6  7  1  0  0  0  0
  6 35  1  0  0  0  0
  7  8  1  0  0  0  0
  8  9  1  0  0  0  0
  9 10  1  0  0  0  0
  9 36  1  0  0  0  0
  9 37  1  0  0  0  0
 10 11  2  0  0  0  0
 10 12  1  0  0  0  0
 13 14  1  0  0  0  0
 14 15  1  0  0  0  0
 14 38  1  0  0  0  0
 14 39  1  0  0  0  0
 15 19  1  0  0  0  0
 15 16  2  0  0  0  0
 16 17  1  0  0  0  0
 16 40  1  0  0  0  0
 17 18  1  0  0  0  0
 18 19  2  0  0  0  0
 19 20  1  0  0  0  0
 20 25  2  0  0  0  0
 20 21  1  0  0  0  0
 21 22  2  0  0  0  0
 21 41  1  0  0  0  0
 22 23  1  0  0  0  0
 22 42  1  0  0  0  0
 23 24  2  0  0  0  0
 23 26  1  0  0  0  0
 24 25  1  0  0  0  0
 24 43  1  0  0  0  0
 25 44  1  0  0  0  0
 26 27  1  0  0  0  0
 26 28  1  0  0  0  0
 26 29  1  0  0  0  0
M  CHG  1  12  -1
M  END
$$$$
