CHEMBL213524
 OpenBabel05272217113D

 51 54  0  0  0  0  0  0  0  0999 V2000
   -0.0162    1.3465    0.0094 C   0  0  0  0  0  0  0  0  0  0  0  0
    1.3202    1.7782   -0.0010 C   0  0  0  0  0  0  0  0  0  0  0  0
    2.0962    0.6534   -0.0144 C   0  0  0  0  0  0  0  0  0  0  0  0
    1.2772   -0.4184   -0.0124 O   0  0  0  0  0  0  0  0  0  0  0  0
    0.0021   -0.0041    0.0020 C   0  0  0  0  0  0  0  0  0  0  0  0
    3.5601    0.6178   -0.0290 C   0  0  0  0  0  0  0  0  0  0  0  0
    4.3560   -0.5277   -0.0484 C   0  0  0  0  0  0  0  0  0  0  0  0
    5.7494   -0.0641   -0.0572 C   0  0  0  0  0  0  0  0  0  0  0  0
    5.7224    1.2445   -0.0437 N   0  0  0  0  0  0  0  0  0  0  0  0
    4.3794    1.6827   -0.0321 O   0  0  0  0  0  0  0  0  0  0  0  0
    6.9611   -0.9191   -0.0769 C   0  0  0  0  0  0  0  0  0  0  0  0
    6.8376   -2.3073   -0.0948 C   0  0  0  0  0  0  0  0  0  0  0  0
    7.9683   -3.0980   -0.1130 C   0  0  0  0  0  0  0  0  0  0  0  0
    9.2235   -2.5158   -0.1132 C   0  0  0  0  0  0  0  0  0  0  0  0
    9.3534   -1.1394   -0.0956 C   0  0  0  0  0  0  0  0  0  0  0  0
    8.2285   -0.3372   -0.0835 C   0  0  0  0  0  0  0  0  0  0  0  0
    8.3924    1.3910   -0.0691 Cl  0  0  0  0  0  0  0  0  0  0  0  0
   10.4541   -3.3856   -0.1322 C   0  0  0  0  0  0  0  0  0  0  0  0
   10.8555   -3.6569   -1.5592 C   0  0  0  0  0  0  0  0  0  0  0  0
   10.2028   -3.1876   -2.4758 O   0  0  0  0  0  0  0  0  0  0  0  0
   11.8329   -4.3458   -1.7970 O   0  5  0  0  0  0  0  0  0  0  0  0
    3.8928   -1.9195   -0.0576 C   0  0  0  0  0  0  0  0  0  0  0  0
    3.6905   -2.4866   -1.1152 O   0  0  0  0  0  0  0  0  0  0  0  0
    3.6912   -2.5704    1.1053 N   0  0  0  0  0  0  0  0  0  0  0  0
    3.2286   -3.9604    1.0961 C   0  0  0  0  0  0  0  0  0  0  0  0
    3.0814   -4.4584    2.5353 C   0  0  0  0  0  0  0  0  0  0  0  0
    2.0484   -3.7205    3.1914 O   0  0  0  0  0  0  0  0  0  0  0  0
    1.7883   -4.0411    4.4866 C   0  0  0  0  0  0  0  0  0  0  0  0
    2.5162   -5.0411    5.1142 C   0  0  0  0  0  0  0  0  0  0  0  0
    2.2505   -5.3657    6.4305 C   0  0  0  0  0  0  0  0  0  0  0  0
    1.2587   -4.6941    7.1235 C   0  0  0  0  0  0  0  0  0  0  0  0
    0.5310   -3.6962    6.5001 C   0  0  0  0  0  0  0  0  0  0  0  0
    0.7976   -3.3644    5.1847 C   0  0  0  0  0  0  0  0  0  0  0  0
   -0.1106   -2.1073    4.4045 Cl  0  0  0  0  0  0  0  0  0  0  0  0
    0.9268   -5.1047    8.7772 Cl  0  0  0  0  0  0  0  0  0  0  0  0
   -0.8936    1.9761    0.0252 H   0  0  0  0  0  0  0  0  0  0  0  0
    1.6673    2.8009    0.0006 H   0  0  0  0  0  0  0  0  0  0  0  0
   -0.8673   -0.6448    0.0076 H   0  0  0  0  0  0  0  0  0  0  0  0
    5.8586   -2.7633   -0.0940 H   0  0  0  0  0  0  0  0  0  0  0  0
    7.8733   -4.1737   -0.1269 H   0  0  0  0  0  0  0  0  0  0  0  0
   10.3357   -0.6905   -0.0958 H   0  0  0  0  0  0  0  0  0  0  0  0
   11.2677   -2.8752    0.3833 H   0  0  0  0  0  0  0  0  0  0  0  0
   10.2403   -4.3287    0.3707 H   0  0  0  0  0  0  0  0  0  0  0  0
    3.8524   -2.1184    1.9483 H   0  0  0  0  0  0  0  0  0  0  0  0
    2.2645   -4.0191    0.5909 H   0  0  0  0  0  0  0  0  0  0  0  0
    3.9533   -4.5810    0.5692 H   0  0  0  0  0  0  0  0  0  0  0  0
    2.8234   -5.5174    2.5287 H   0  0  0  0  0  0  0  0  0  0  0  0
    4.0225   -4.3170    3.0667 H   0  0  0  0  0  0  0  0  0  0  0  0
    3.2902   -5.5660    4.5740 H   0  0  0  0  0  0  0  0  0  0  0  0
    2.8171   -6.1446    6.9190 H   0  0  0  0  0  0  0  0  0  0  0  0
   -0.2429   -3.1734    7.0425 H   0  0  0  0  0  0  0  0  0  0  0  0
  1  5  2  0  0  0  0
  1  2  1  0  0  0  0
  1 36  1  0  0  0  0
  2  3  2  0  0  0  0
  2 37  1  0  0  0  0
  3  4  1  0  0  0  0
  3  6  1  0  0  0  0
  4  5  1  0  0  0  0
  5 38  1  0  0  0  0
  6 10  1  0  0  0  0
  6  7  2  0  0  0  0
  7  8  1  0  0  0  0
  7 22  1  0  0  0  0
  8  9  2  0  0  0  0
  8 11  1  0  0  0  0
  9 10  1  0  0  0  0
 11 16  2  0  0  0  0
 11 12  1  0  0  0  0
 12 13  2  0  0  0  0
 12 39  1  0  0  0  0
 13 14  1  0  0  0  0
 13 40  1  0  0  0  0
 14 15  2  0  0  0  0
 14 18  1  0  0  0  0
 15 16  1  0  0  0  0
 15 41  1  0  0  0  0
 16 17  1  0  0  0  0
 18 19  1  0  0  0  0
 18 42  1  0  0  0  0
 18 43  1  0  0  0  0
 19 20  2  0  0  0  0
 19 21  1  0  0  0  0
 22 23  2  0  0  0  0
 22 24  1  0  0  0  0
 24 25  1  0  0  0  0
 24 44  1  0  0  0  0
 25 26  1  0  0  0  0
 25 45  1  0  0  0  0
 25 46  1  0  0  0  0
 26 27  1  0  0  0  0
 26 47  1  0  0  0  0
 26 48  1  0  0  0  0
 27 28  1  0  0  0  0
 28 33  2  0  0  0  0
 28 29  1  0  0  0  0
 29 30  2  0  0  0  0
 29 49  1  0  0  0  0
 30 31  1  0  0  0  0
 30 50  1  0  0  0  0
 31 32  2  0  0  0  0
 31 35  1  0  0  0  0
 32 33  1  0  0  0  0
 32 51  1  0  0  0  0
 33 34  1  0  0  0  0
M  CHG  1  21  -1
M  END
$$$$
