CHEMBL234689
 OpenBabel05272217113D

 53 55  0  0  1  0  0  0  0  0999 V2000
   -4.2486   -2.7413    1.7879 C   0  0  0  0  0  0  0  0  0  0  0  0
   -2.8647   -2.8824    1.2083 C   0  0  0  0  0  0  0  0  0  0  0  0
   -2.6972   -3.3999   -0.0617 C   0  0  0  0  0  0  0  0  0  0  0  0
   -1.4237   -3.5294   -0.5952 C   0  0  0  0  0  0  0  0  0  0  0  0
   -0.3181   -3.1393    0.1462 C   0  0  0  0  0  0  0  0  0  0  0  0
   -0.4856   -2.6220    1.4157 C   0  0  0  0  0  0  0  0  0  0  0  0
   -1.7597   -2.4876    1.9474 C   0  0  0  0  0  0  0  0  0  0  0  0
   -1.9250   -1.9730    3.1952 O   0  0  0  0  0  0  0  0  0  0  0  0
   -0.7431   -1.5871    3.8996 C   0  0  0  0  0  0  0  0  0  0  0  0
   -1.1202   -1.0435    5.2536 C   0  0  0  0  0  0  0  0  0  0  0  0
   -2.2924   -0.9915    5.5848 O   0  0  0  0  0  0  0  0  0  0  0  0
   -0.2530   -0.6559    6.0180 O   0  5  0  0  0  0  0  0  0  0  0  0
   -1.2588   -4.0392   -1.8451 O   0  0  0  0  0  0  0  0  0  0  0  0
    0.0808   -4.1441   -2.3314 C   0  0  0  0  0  0  0  0  0  0  0  0
    0.0664   -4.7256   -3.7216 C   0  0  0  0  0  0  0  0  0  0  0  0
    0.9292   -5.6542   -4.0521 C   0  0  0  0  0  0  0  0  0  0  0  0
    1.8673   -6.2148   -3.0144 C   0  0  1  0  0  0  0  0  0  0  0  0
    1.7509   -7.6820   -2.9892 C   0  0  0  0  0  0  0  0  0  0  0  0
    1.6580   -8.8521   -2.9691 C   0  0  0  0  0  0  0  0  0  0  0  0
    1.5446  -10.2794   -2.9445 C   0  0  0  0  0  0  0  0  0  0  0  0
    0.6603  -10.9188   -3.8141 C   0  0  0  0  0  0  0  0  0  0  0  0
    0.5626  -12.2984   -3.7785 C   0  0  0  0  0  0  0  0  0  0  0  0
    1.3522  -12.9958   -2.8746 C   0  0  0  0  0  0  0  0  0  0  0  0
    2.2076  -12.2987   -2.0415 C   0  0  0  0  0  0  0  0  0  0  0  0
    2.2860  -10.9848   -2.0981 N   0  0  0  0  0  0  0  0  0  0  0  0
    3.2834   -5.8291   -3.3567 C   0  0  0  0  0  0  0  0  0  0  0  0
    3.8352   -6.2241   -4.5611 C   0  0  0  0  0  0  0  0  0  0  0  0
    5.1338   -5.8703   -4.8756 C   0  0  0  0  0  0  0  0  0  0  0  0
    5.8812   -5.1207   -3.9851 C   0  0  0  0  0  0  0  0  0  0  0  0
    5.3286   -4.7257   -2.7801 C   0  0  0  0  0  0  0  0  0  0  0  0
    4.0282   -5.0756   -2.4687 C   0  0  0  0  0  0  0  0  0  0  0  0
    7.6580   -4.6368   -4.4145 Br  0  0  0  0  0  0  0  0  0  0  0  0
   -4.6529   -1.7627    1.5288 H   0  0  0  0  0  0  0  0  0  0  0  0
   -4.8938   -3.5202    1.3817 H   0  0  0  0  0  0  0  0  0  0  0  0
   -4.1999   -2.8387    2.8725 H   0  0  0  0  0  0  0  0  0  0  0  0
   -3.5580   -3.7039   -0.6388 H   0  0  0  0  0  0  0  0  0  0  0  0
    0.6737   -3.2405   -0.2692 H   0  0  0  0  0  0  0  0  0  0  0  0
    0.3753   -2.3190    1.9932 H   0  0  0  0  0  0  0  0  0  0  0  0
   -0.0947   -2.4544    4.0240 H   0  0  0  0  0  0  0  0  0  0  0  0
   -0.2172   -0.8186    3.3332 H   0  0  0  0  0  0  0  0  0  0  0  0
    0.5368   -3.1544   -2.3562 H   0  0  0  0  0  0  0  0  0  0  0  0
    0.6569   -4.7932   -1.6720 H   0  0  0  0  0  0  0  0  0  0  0  0
   -0.6553   -4.3767   -4.4454 H   0  0  0  0  0  0  0  0  0  0  0  0
    0.9683   -6.0180   -5.0682 H   0  0  0  0  0  0  0  0  0  0  0  0
    1.6079   -5.8128   -2.0351 H   0  0  0  0  0  0  0  0  0  0  0  0
    0.0603  -10.3449   -4.5048 H   0  0  0  0  0  0  0  0  0  0  0  0
   -0.1133  -12.8211   -4.4391 H   0  0  0  0  0  0  0  0  0  0  0  0
    1.2986  -14.0732   -2.8223 H   0  0  0  0  0  0  0  0  0  0  0  0
    2.8229  -12.8390   -1.3373 H   0  0  0  0  0  0  0  0  0  0  0  0
    3.2518   -6.8096   -5.2562 H   0  0  0  0  0  0  0  0  0  0  0  0
    5.5650   -6.1792   -5.8164 H   0  0  0  0  0  0  0  0  0  0  0  0
    5.9117   -4.1405   -2.0845 H   0  0  0  0  0  0  0  0  0  0  0  0
    3.5952   -4.7638   -1.5297 H   0  0  0  0  0  0  0  0  0  0  0  0
  1  2  1  0  0  0  0
  1 33  1  0  0  0  0
  1 34  1  0  0  0  0
  1 35  1  0  0  0  0
  2  7  2  0  0  0  0
  2  3  1  0  0  0  0
  3  4  2  0  0  0  0
  3 36  1  0  0  0  0
  4  5  1  0  0  0  0
  4 13  1  0  0  0  0
  5  6  2  0  0  0  0
  5 37  1  0  0  0  0
  6  7  1  0  0  0  0
  6 38  1  0  0  0  0
  7  8  1  0  0  0  0
  8  9  1  0  0  0  0
  9 10  1  0  0  0  0
  9 39  1  0  0  0  0
  9 40  1  0  0  0  0
 10 11  2  0  0  0  0
 10 12  1  0  0  0  0
 13 14  1  0  0  0  0
 14 15  1  0  0  0  0
 14 41  1  0  0  0  0
 14 42  1  0  0  0  0
 15 16  2  0  0  0  0
 15 43  1  0  0  0  0
 16 17  1  0  0  0  0
 16 44  1  0  0  0  0
 17 18  1  0  0  0  0
 17 26  1  0  0  0  0
 17 45  1  1  0  0  0
 18 19  3  0  0  0  0
 19 20  1  0  0  0  0
 20 25  2  0  0  0  0
 20 21  1  0  0  0  0
 21 22  2  0  0  0  0
 21 46  1  0  0  0  0
 22 23  1  0  0  0  0
 22 47  1  0  0  0  0
 23 24  2  0  0  0  0
 23 48  1  0  0  0  0
 24 25  1  0  0  0  0
 24 49  1  0  0  0  0
 26 31  2  0  0  0  0
 26 27  1  0  0  0  0
 27 28  2  0  0  0  0
 27 50  1  0  0  0  0
 28 29  1  0  0  0  0
 28 51  1  0  0  0  0
 29 30  2  0  0  0  0
 29 32  1  0  0  0  0
 30 31  1  0  0  0  0
 30 52  1  0  0  0  0
 31 53  1  0  0  0  0
M  CHG  1  12  -1
M  END
$$$$
