CHEMBL513749
 OpenBabel05272217113D

 46 47  0  0  0  0  0  0  0  0999 V2000
   -0.0184    1.5028    0.0103 C   0  0  0  0  0  0  0  0  0  0  0  0
    0.0021   -0.0041    0.0020 C   0  0  0  0  0  0  0  0  0  0  0  0
    0.0057   -0.6878   -1.1980 C   0  0  0  0  0  0  0  0  0  0  0  0
    0.0246   -2.0766   -1.2053 C   0  0  0  0  0  0  0  0  0  0  0  0
    0.0397   -2.7765   -0.0051 C   0  0  0  0  0  0  0  0  0  0  0  0
    0.0360   -2.0909    1.1933 C   0  0  0  0  0  0  0  0  0  0  0  0
    0.0229   -0.7036    1.1994 C   0  0  0  0  0  0  0  0  0  0  0  0
    0.0254   -0.0293    2.3804 O   0  0  0  0  0  0  0  0  0  0  0  0
    0.0474   -0.8131    3.5751 C   0  0  0  0  0  0  0  0  0  0  0  0
    0.0468    0.0992    4.7746 C   0  0  0  0  0  0  0  0  0  0  0  0
    0.0293    1.3085    4.6207 O   0  0  0  0  0  0  0  0  0  0  0  0
    0.0640   -0.3721    5.8989 O   0  5  0  0  0  0  0  0  0  0  0  0
    0.0286   -2.9502   -2.7355 S   0  0  0  0  0  0  0  0  0  0  0  0
    0.0549   -4.6962   -2.2439 C   0  0  0  0  0  0  0  0  0  0  0  0
    0.0604   -5.5647   -3.4755 C   0  0  0  0  0  0  0  0  0  0  0  0
    1.1626   -6.1673   -3.8471 C   0  0  0  0  0  0  0  0  0  0  0  0
   -1.2021   -5.7401   -4.2795 C   0  0  0  0  0  0  0  0  0  0  0  0
   -2.3297   -6.8553   -3.3989 S   0  0  0  0  0  0  0  0  0  0  0  0
   -3.7381   -6.9568   -4.4529 C   0  0  0  0  0  0  0  0  0  0  0  0
   -3.7617   -6.2568   -5.6532 C   0  0  0  0  0  0  0  0  0  0  0  0
   -4.8671   -6.3387   -6.4766 C   0  0  0  0  0  0  0  0  0  0  0  0
   -5.9499   -7.1162   -6.1081 C   0  0  0  0  0  0  0  0  0  0  0  0
   -5.9301   -7.8138   -4.9141 C   0  0  0  0  0  0  0  0  0  0  0  0
   -4.8256   -7.7416   -4.0886 C   0  0  0  0  0  0  0  0  0  0  0  0
   -7.1545   -7.2030   -7.0095 C   0  0  0  0  0  0  0  0  0  0  0  0
   -6.9922   -8.2666   -7.9037 F   0  0  0  0  0  0  0  0  0  0  0  0
   -8.3012   -7.4144   -6.2365 F   0  0  0  0  0  0  0  0  0  0  0  0
   -7.2884   -6.0084   -7.7253 F   0  0  0  0  0  0  0  0  0  0  0  0
    1.0042    1.8801    0.0026 H   0  0  0  0  0  0  0  0  0  0  0  0
   -0.5455    1.8639   -0.8728 H   0  0  0  0  0  0  0  0  0  0  0  0
   -0.5286    1.8543    0.9071 H   0  0  0  0  0  0  0  0  0  0  0  0
   -0.0064   -0.1428   -2.1303 H   0  0  0  0  0  0  0  0  0  0  0  0
    0.0540   -3.8564   -0.0097 H   0  0  0  0  0  0  0  0  0  0  0  0
    0.0478   -2.6347    2.1263 H   0  0  0  0  0  0  0  0  0  0  0  0
   -0.8339   -1.4538    3.6055 H   0  0  0  0  0  0  0  0  0  0  0  0
    0.9458   -1.4302    3.5883 H   0  0  0  0  0  0  0  0  0  0  0  0
    0.9506   -4.8945   -1.6554 H   0  0  0  0  0  0  0  0  0  0  0  0
   -0.8291   -4.9187   -1.6464 H   0  0  0  0  0  0  0  0  0  0  0  0
    1.1666   -6.7897   -4.7297 H   0  0  0  0  0  0  0  0  0  0  0  0
    2.0674   -6.0416   -3.2709 H   0  0  0  0  0  0  0  0  0  0  0  0
   -1.6828   -4.7716   -4.4170 H   0  0  0  0  0  0  0  0  0  0  0  0
   -0.9569   -6.1655   -5.2527 H   0  0  0  0  0  0  0  0  0  0  0  0
   -2.9166   -5.6492   -5.9415 H   0  0  0  0  0  0  0  0  0  0  0  0
   -4.8863   -5.7947   -7.4094 H   0  0  0  0  0  0  0  0  0  0  0  0
   -6.7776   -8.4197   -4.6294 H   0  0  0  0  0  0  0  0  0  0  0  0
   -4.8087   -8.2908   -3.1588 H   0  0  0  0  0  0  0  0  0  0  0  0
  1  2  1  0  0  0  0
  1 29  1  0  0  0  0
  1 30  1  0  0  0  0
  1 31  1  0  0  0  0
  2  7  2  0  0  0  0
  2  3  1  0  0  0  0
  3  4  2  0  0  0  0
  3 32  1  0  0  0  0
  4  5  1  0  0  0  0
  4 13  1  0  0  0  0
  5  6  2  0  0  0  0
  5 33  1  0  0  0  0
  6  7  1  0  0  0  0
  6 34  1  0  0  0  0
  7  8  1  0  0  0  0
  8  9  1  0  0  0  0
  9 10  1  0  0  0  0
  9 35  1  0  0  0  0
  9 36  1  0  0  0  0
 10 11  2  0  0  0  0
 10 12  1  0  0  0  0
 13 14  1  0  0  0  0
 14 15  1  0  0  0  0
 14 37  1  0  0  0  0
 14 38  1  0  0  0  0
 15 16  2  0  0  0  0
 15 17  1  0  0  0  0
 16 39  1  0  0  0  0
 16 40  1  0  0  0  0
 17 18  1  0  0  0  0
 17 41  1  0  0  0  0
 17 42  1  0  0  0  0
 18 19  1  0  0  0  0
 19 24  2  0  0  0  0
 19 20  1  0  0  0  0
 20 21  2  0  0  0  0
 20 43  1  0  0  0  0
 21 22  1  0  0  0  0
 21 44  1  0  0  0  0
 22 23  2  0  0  0  0
 22 25  1  0  0  0  0
 23 24  1  0  0  0  0
 23 45  1  0  0  0  0
 24 46  1  0  0  0  0
 25 26  1  0  0  0  0
 25 27  1  0  0  0  0
 25 28  1  0  0  0  0
M  CHG  1  12  -1
M  END
$$$$
