CHEMBL1081046
 OpenBabel05272217113D

 56 59  0  0  0  0  0  0  0  0999 V2000
    0.5530    0.0100    1.1761 C   0  0  0  0  0  0  0  0  0  0  0  0
   -0.1927   -0.1482   -0.0326 O   0  0  0  0  0  0  0  0  0  0  0  0
    0.4501   -0.7224   -1.0834 C   0  0  0  0  0  0  0  0  0  0  0  0
    1.7705   -1.1295   -0.9488 C   0  0  0  0  0  0  0  0  0  0  0  0
    2.4259   -1.7124   -2.0129 C   0  0  0  0  0  0  0  0  0  0  0  0
    1.7606   -1.8928   -3.2256 C   0  0  0  0  0  0  0  0  0  0  0  0
    0.4338   -1.4825   -3.3572 C   0  0  0  0  0  0  0  0  0  0  0  0
   -0.2170   -0.9054   -2.2871 C   0  0  0  0  0  0  0  0  0  0  0  0
    2.4613   -2.5181   -4.3711 C   0  0  0  0  0  0  0  0  0  0  0  0
    3.2837   -3.6317   -4.2163 C   0  0  0  0  0  0  0  0  0  0  0  0
    3.8071   -3.8878   -5.9041 S   0  0  0  0  0  0  0  0  0  0  0  0
    2.9674   -2.6120   -6.6094 C   0  0  0  0  0  0  0  0  0  0  0  0
    2.3404   -2.0566   -5.6057 N   0  0  0  0  0  0  0  0  0  0  0  0
    2.9399   -2.2072   -8.0608 C   0  0  0  0  0  0  0  0  0  0  0  0
    4.2708   -1.0171   -8.3819 S   0  0  0  0  0  0  0  0  0  0  0  0
    4.1071   -0.6469  -10.0967 C   0  0  0  0  0  0  0  0  0  0  0  0
    3.1018   -1.2466  -10.8443 C   0  0  0  0  0  0  0  0  0  0  0  0
    2.9739   -0.9554  -12.1883 C   0  0  0  0  0  0  0  0  0  0  0  0
    3.8489   -0.0644  -12.7922 C   0  0  0  0  0  0  0  0  0  0  0  0
    4.8534    0.5355  -12.0474 C   0  0  0  0  0  0  0  0  0  0  0  0
    4.9802    0.2499  -10.7012 C   0  0  0  0  0  0  0  0  0  0  0  0
    6.2330    1.0060   -9.7671 Cl  0  0  0  0  0  0  0  0  0  0  0  0
    3.7219    0.2209  -14.1159 O   0  0  0  0  0  0  0  0  0  0  0  0
    4.6570    1.1471  -14.6725 C   0  0  0  0  0  0  0  0  0  0  0  0
    4.3631    1.3380  -16.1382 C   0  0  0  0  0  0  0  0  0  0  0  0
    3.4386    0.7366  -16.6579 O   0  0  0  0  0  0  0  0  0  0  0  0
    5.0498    2.0938  -16.8043 O   0  5  0  0  0  0  0  0  0  0  0  0
    3.6275   -4.3889   -2.9963 C   0  0  0  0  0  0  0  0  0  0  0  0
    2.6213   -4.7929   -2.1158 C   0  0  0  0  0  0  0  0  0  0  0  0
    2.9468   -5.5001   -0.9782 C   0  0  0  0  0  0  0  0  0  0  0  0
    4.2727   -5.8108   -0.7070 C   0  0  0  0  0  0  0  0  0  0  0  0
    5.2762   -5.4112   -1.5795 C   0  0  0  0  0  0  0  0  0  0  0  0
    4.9593   -4.7083   -2.7222 C   0  0  0  0  0  0  0  0  0  0  0  0
    4.5891   -6.5078    0.4160 O   0  0  0  0  0  0  0  0  0  0  0  0
    5.9721   -6.7937    0.6339 C   0  0  0  0  0  0  0  0  0  0  0  0
    0.8805   -0.9670    1.5315 H   0  0  0  0  0  0  0  0  0  0  0  0
    1.4233    0.6382    0.9865 H   0  0  0  0  0  0  0  0  0  0  0  0
   -0.0762    0.4795    1.9323 H   0  0  0  0  0  0  0  0  0  0  0  0
    2.2851   -0.9892   -0.0098 H   0  0  0  0  0  0  0  0  0  0  0  0
    3.4532   -2.0286   -1.9076 H   0  0  0  0  0  0  0  0  0  0  0  0
   -0.0842   -1.6202   -4.2947 H   0  0  0  0  0  0  0  0  0  0  0  0
   -1.2456   -0.5918   -2.3867 H   0  0  0  0  0  0  0  0  0  0  0  0
    3.0817   -3.0884   -8.6865 H   0  0  0  0  0  0  0  0  0  0  0  0
    1.9786   -1.7484   -8.2919 H   0  0  0  0  0  0  0  0  0  0  0  0
    2.4205   -1.9407  -10.3749 H   0  0  0  0  0  0  0  0  0  0  0  0
    2.1924   -1.4221  -12.7695 H   0  0  0  0  0  0  0  0  0  0  0  0
    5.5343    1.2288  -12.5186 H   0  0  0  0  0  0  0  0  0  0  0  0
    4.5714    2.1038  -14.1572 H   0  0  0  0  0  0  0  0  0  0  0  0
    5.6684    0.7588  -14.5523 H   0  0  0  0  0  0  0  0  0  0  0  0
    1.5898   -4.5513   -2.3258 H   0  0  0  0  0  0  0  0  0  0  0  0
    2.1694   -5.8125   -0.2967 H   0  0  0  0  0  0  0  0  0  0  0  0
    6.3062   -5.6548   -1.3645 H   0  0  0  0  0  0  0  0  0  0  0  0
    5.7401   -4.4014   -3.4024 H   0  0  0  0  0  0  0  0  0  0  0  0
    6.0856   -7.3531    1.5625 H   0  0  0  0  0  0  0  0  0  0  0  0
    6.3559   -7.3864   -0.1965 H   0  0  0  0  0  0  0  0  0  0  0  0
    6.5299   -5.8597    0.7019 H   0  0  0  0  0  0  0  0  0  0  0  0
  1  2  1  0  0  0  0
  1 36  1  0  0  0  0
  1 37  1  0  0  0  0
  1 38  1  0  0  0  0
  2  3  1  0  0  0  0
  3  8  2  0  0  0  0
  3  4  1  0  0  0  0
  4  5  2  0  0  0  0
  4 39  1  0  0  0  0
  5  6  1  0  0  0  0
  5 40  1  0  0  0  0
  6  7  2  0  0  0  0
  6  9  1  0  0  0  0
  7  8  1  0  0  0  0
  7 41  1  0  0  0  0
  8 42  1  0  0  0  0
  9 13  1  0  0  0  0
  9 10  2  0  0  0  0
 10 11  1  0  0  0  0
 10 28  1  0  0  0  0
 11 12  1  0  0  0  0
 12 13  2  0  0  0  0
 12 14  1  0  0  0  0
 14 15  1  0  0  0  0
 14 43  1  0  0  0  0
 14 44  1  0  0  0  0
 15 16  1  0  0  0  0
 16 21  2  0  0  0  0
 16 17  1  0  0  0  0
 17 18  2  0  0  0  0
 17 45  1  0  0  0  0
 18 19  1  0  0  0  0
 18 46  1  0  0  0  0
 19 20  2  0  0  0  0
 19 23  1  0  0  0  0
 20 21  1  0  0  0  0
 20 47  1  0  0  0  0
 21 22  1  0  0  0  0
 23 24  1  0  0  0  0
 24 25  1  0  0  0  0
 24 48  1  0  0  0  0
 24 49  1  0  0  0  0
 25 26  2  0  0  0  0
 25 27  1  0  0  0  0
 28 33  2  0  0  0  0
 28 29  1  0  0  0  0
 29 30  2  0  0  0  0
 29 50  1  0  0  0  0
 30 31  1  0  0  0  0
 30 51  1  0  0  0  0
 31 32  2  0  0  0  0
 31 34  1  0  0  0  0
 32 33  1  0  0  0  0
 32 52  1  0  0  0  0
 33 53  1  0  0  0  0
 34 35  1  0  0  0  0
 35 54  1  0  0  0  0
 35 55  1  0  0  0  0
 35 56  1  0  0  0  0
M  CHG  1  27  -1
M  END
$$$$
