CHEMBL1076175
 OpenBabel05272217113D

 65 69  0  0  0  0  0  0  0  0999 V2000
   -0.4936    2.0094   -0.7890 C   0  0  0  0  0  0  0  0  0  0  0  0
   -0.3850    0.5151   -0.6268 C   0  0  0  0  0  0  0  0  0  0  0  0
   -0.3225   -0.2980   -1.7420 C   0  0  0  0  0  0  0  0  0  0  0  0
   -0.2221   -1.6731   -1.5927 C   0  0  0  0  0  0  0  0  0  0  0  0
   -0.1845   -2.2321   -0.3237 C   0  0  0  0  0  0  0  0  0  0  0  0
   -0.2469   -1.4192    0.7911 C   0  0  0  0  0  0  0  0  0  0  0  0
   -0.3421   -0.0433    0.6418 C   0  0  0  0  0  0  0  0  0  0  0  0
   -0.3979    0.7574    1.7394 O   0  0  0  0  0  0  0  0  0  0  0  0
   -0.3489    0.1145    3.0147 C   0  0  0  0  0  0  0  0  0  0  0  0
   -0.4220    1.1532    4.1040 C   0  0  0  0  0  0  0  0  0  0  0  0
   -0.5081    2.3346    3.8152 O   0  0  0  0  0  0  0  0  0  0  0  0
   -0.3950    0.8122    5.2743 O   0  5  0  0  0  0  0  0  0  0  0  0
   -0.1610   -2.4734   -2.6904 O   0  0  0  0  0  0  0  0  0  0  0  0
   -0.0585   -3.8804   -2.4624 C   0  0  0  0  0  0  0  0  0  0  0  0
   -0.0028   -4.6008   -3.7849 C   0  0  0  0  0  0  0  0  0  0  0  0
    1.0537   -4.9154   -4.4871 N   0  0  0  0  0  0  0  0  0  0  0  0
    0.9545   -5.5549   -5.6422 C   0  0  0  0  0  0  0  0  0  0  0  0
   -0.3399   -5.8667   -6.0546 C   0  0  0  0  0  0  0  0  0  0  0  0
   -1.2855   -5.1938   -4.6976 S   0  0  0  0  0  0  0  0  0  0  0  0
   -0.8005   -6.5637   -7.2718 C   0  0  0  0  0  0  0  0  0  0  0  0
   -0.2003   -7.7633   -7.6616 C   0  0  0  0  0  0  0  0  0  0  0  0
   -0.6335   -8.4107   -8.7988 C   0  0  0  0  0  0  0  0  0  0  0  0
   -1.6650   -7.8720   -9.5566 C   0  0  0  0  0  0  0  0  0  0  0  0
   -2.2645   -6.6797   -9.1729 C   0  0  0  0  0  0  0  0  0  0  0  0
   -1.8416   -6.0285   -8.0340 C   0  0  0  0  0  0  0  0  0  0  0  0
   -2.0886   -8.5133  -10.6773 O   0  0  0  0  0  0  0  0  0  0  0  0
   -3.1535   -7.9042  -11.4100 C   0  0  0  0  0  0  0  0  0  0  0  0
   -2.7598   -6.6299  -11.8322 F   0  0  0  0  0  0  0  0  0  0  0  0
   -3.4616   -8.6905  -12.5253 F   0  0  0  0  0  0  0  0  0  0  0  0
   -4.2816   -7.7958  -10.5898 F   0  0  0  0  0  0  0  0  0  0  0  0
    2.1439   -5.9157   -6.4457 C   0  0  0  0  0  0  0  0  0  0  0  0
    2.1314   -5.7376   -7.8304 C   0  0  0  0  0  0  0  0  0  0  0  0
    3.2385   -6.0730   -8.5773 C   0  0  0  0  0  0  0  0  0  0  0  0
    4.3722   -6.5906   -7.9508 C   0  0  0  0  0  0  0  0  0  0  0  0
    4.3851   -6.7692   -6.5675 C   0  0  0  0  0  0  0  0  0  0  0  0
    3.2808   -6.4288   -5.8187 C   0  0  0  0  0  0  0  0  0  0  0  0
    5.5641   -6.9516   -8.7558 C   0  0  0  0  0  0  0  0  0  0  0  0
    5.5563   -6.7694  -10.1378 C   0  0  0  0  0  0  0  0  0  0  0  0
    6.6683   -7.1072  -10.8819 C   0  0  0  0  0  0  0  0  0  0  0  0
    7.7892   -7.6261  -10.2589 C   0  0  0  0  0  0  0  0  0  0  0  0
    7.8024   -7.8095   -8.8879 C   0  0  0  0  0  0  0  0  0  0  0  0
    6.6986   -7.4691   -8.1328 C   0  0  0  0  0  0  0  0  0  0  0  0
    0.5052    2.4440   -0.8301 H   0  0  0  0  0  0  0  0  0  0  0  0
   -1.0271    2.2369   -1.7119 H   0  0  0  0  0  0  0  0  0  0  0  0
   -1.0375    2.4282    0.0577 H   0  0  0  0  0  0  0  0  0  0  0  0
   -0.3522    0.1372   -2.7300 H   0  0  0  0  0  0  0  0  0  0  0  0
   -0.1066   -3.3030   -0.2075 H   0  0  0  0  0  0  0  0  0  0  0  0
   -0.2184   -1.8545    1.7790 H   0  0  0  0  0  0  0  0  0  0  0  0
   -1.1913   -0.5707    3.1088 H   0  0  0  0  0  0  0  0  0  0  0  0
    0.5840   -0.4421    3.1053 H   0  0  0  0  0  0  0  0  0  0  0  0
    0.8481   -4.0915   -1.8953 H   0  0  0  0  0  0  0  0  0  0  0  0
   -0.9271   -4.2215   -1.8992 H   0  0  0  0  0  0  0  0  0  0  0  0
    0.6021   -8.1828   -7.0729 H   0  0  0  0  0  0  0  0  0  0  0  0
   -0.1698   -9.3380   -9.1011 H   0  0  0  0  0  0  0  0  0  0  0  0
   -3.0664   -6.2643   -9.7652 H   0  0  0  0  0  0  0  0  0  0  0  0
   -2.3114   -5.1035   -7.7338 H   0  0  0  0  0  0  0  0  0  0  0  0
    1.2536   -5.3372   -8.3156 H   0  0  0  0  0  0  0  0  0  0  0  0
    3.2288   -5.9356   -9.6485 H   0  0  0  0  0  0  0  0  0  0  0  0
    5.2631   -7.1703   -6.0831 H   0  0  0  0  0  0  0  0  0  0  0  0
    3.2926   -6.5626   -4.7471 H   0  0  0  0  0  0  0  0  0  0  0  0
    4.6815   -6.3651  -10.6253 H   0  0  0  0  0  0  0  0  0  0  0  0
    6.6634   -6.9665  -11.9527 H   0  0  0  0  0  0  0  0  0  0  0  0
    8.6571   -7.8894  -10.8453 H   0  0  0  0  0  0  0  0  0  0  0  0
    8.6801   -8.2153   -8.4069 H   0  0  0  0  0  0  0  0  0  0  0  0
    6.7120   -7.6078   -7.0618 H   0  0  0  0  0  0  0  0  0  0  0  0
  1  2  1  0  0  0  0
  1 43  1  0  0  0  0
  1 44  1  0  0  0  0
  1 45  1  0  0  0  0
  2  7  2  0  0  0  0
  2  3  1  0  0  0  0
  3  4  2  0  0  0  0
  3 46  1  0  0  0  0
  4  5  1  0  0  0  0
  4 13  1  0  0  0  0
  5  6  2  0  0  0  0
  5 47  1  0  0  0  0
  6  7  1  0  0  0  0
  6 48  1  0  0  0  0
  7  8  1  0  0  0  0
  8  9  1  0  0  0  0
  9 10  1  0  0  0  0
  9 49  1  0  0  0  0
  9 50  1  0  0  0  0
 10 11  2  0  0  0  0
 10 12  1  0  0  0  0
 13 14  1  0  0  0  0
 14 15  1  0  0  0  0
 14 51  1  0  0  0  0
 14 52  1  0  0  0  0
 15 19  1  0  0  0  0
 15 16  2  0  0  0  0
 16 17  1  0  0  0  0
 17 18  2  0  0  0  0
 17 31  1  0  0  0  0
 18 19  1  0  0  0  0
 18 20  1  0  0  0  0
 20 25  2  0  0  0  0
 20 21  1  0  0  0  0
 21 22  2  0  0  0  0
 21 53  1  0  0  0  0
 22 23  1  0  0  0  0
 22 54  1  0  0  0  0
 23 24  2  0  0  0  0
 23 26  1  0  0  0  0
 24 25  1  0  0  0  0
 24 55  1  0  0  0  0
 25 56  1  0  0  0  0
 26 27  1  0  0  0  0
 27 28  1  0  0  0  0
 27 29  1  0  0  0  0
 27 30  1  0  0  0  0
 31 36  2  0  0  0  0
 31 32  1  0  0  0  0
 32 33  2  0  0  0  0
 32 57  1  0  0  0  0
 33 34  1  0  0  0  0
 33 58  1  0  0  0  0
 34 35  2  0  0  0  0
 34 37  1  0  0  0  0
 35 36  1  0  0  0  0
 35 59  1  0  0  0  0
 36 60  1  0  0  0  0
 37 42  2  0  0  0  0
 37 38  1  0  0  0  0
 38 39  2  0  0  0  0
 38 61  1  0  0  0  0
 39 40  1  0  0  0  0
 39 62  1  0  0  0  0
 40 41  2  0  0  0  0
 40 63  1  0  0  0  0
 41 42  1  0  0  0  0
 41 64  1  0  0  0  0
 42 65  1  0  0  0  0
M  CHG  1  12  -1
M  END
$$$$
