CHEMBL484606
 OpenBabel05272217113D

 59 62  0  0  1  0  0  0  0  0999 V2000
   -0.0187    1.5258    0.0104 C   0  0  0  0  0  0  0  0  0  0  0  0
    0.0021   -0.0041    0.0020 C   0  0  0  0  0  0  0  0  0  0  0  0
    0.7421   -0.5109    1.2415 C   0  0  0  0  0  0  0  0  0  0  0  0
    0.7614   -1.9398    1.2337 O   0  0  0  0  0  0  0  0  0  0  0  0
    1.4328   -2.5181    2.3548 C   0  0  1  0  0  0  0  0  0  0  0  0
    1.3339   -1.8589    3.2172 H   0  0  0  0  0  0  0  0  0  0  0  0
    0.8085   -3.8772    2.6776 C   0  0  0  0  0  0  0  0  0  0  0  0
   -0.6175   -3.6816    3.1241 C   0  0  0  0  0  0  0  0  0  0  0  0
   -0.9158   -3.5896    4.4690 C   0  0  0  0  0  0  0  0  0  0  0  0
   -2.2328   -3.4091    4.8675 C   0  0  0  0  0  0  0  0  0  0  0  0
   -3.2515   -3.3200    3.9484 C   0  0  0  0  0  0  0  0  0  0  0  0
   -2.9785   -3.4107    2.5590 C   0  0  0  0  0  0  0  0  0  0  0  0
   -1.6284   -3.5883    2.1906 C   0  0  0  0  0  0  0  0  0  0  0  0
   -1.6844   -3.6466    0.4180 S   0  0  0  0  0  0  0  0  0  0  0  0
   -3.4394   -3.4339    0.1897 C   0  0  0  0  0  0  0  0  0  0  0  0
   -3.9090   -3.3412    1.4418 C   0  0  0  0  0  0  0  0  0  0  0  0
   -4.5299   -3.1441    4.3741 O   0  0  0  0  0  0  0  0  0  0  0  0
   -4.7381   -3.0610    5.7854 C   0  0  0  0  0  0  0  0  0  0  0  0
   -6.2284   -2.8645    6.0703 C   0  0  0  0  0  0  0  0  0  0  0  0
   -6.4480   -2.7768    7.5586 C   0  0  0  0  0  0  0  0  0  0  0  0
   -6.6920   -3.8096    8.3858 C   0  0  0  0  0  0  0  0  0  0  0  0
   -6.8265   -3.3043    9.6280 O   0  0  0  0  0  0  0  0  0  0  0  0
   -6.6639   -1.9723    9.5470 C   0  0  0  0  0  0  0  0  0  0  0  0
   -6.4293   -1.6558    8.2954 N   0  0  0  0  0  0  0  0  0  0  0  0
   -6.7323   -1.0240   10.6790 C   0  0  0  0  0  0  0  0  0  0  0  0
   -6.5510    0.3425   10.4604 C   0  0  0  0  0  0  0  0  0  0  0  0
   -6.6166    1.2222   11.5211 C   0  0  0  0  0  0  0  0  0  0  0  0
   -6.8614    0.7525   12.7993 C   0  0  0  0  0  0  0  0  0  0  0  0
   -7.0421   -0.6009   13.0227 C   0  0  0  0  0  0  0  0  0  0  0  0
   -6.9843   -1.4907   11.9700 C   0  0  0  0  0  0  0  0  0  0  0  0
   -6.7959   -5.2615    7.9957 C   0  0  0  0  0  0  0  0  0  0  0  0
    2.8923   -2.7008    2.0269 C   0  0  0  0  0  0  0  0  0  0  0  0
    3.6645   -3.0971    2.8831 O   0  0  0  0  0  0  0  0  0  0  0  0
    3.3008   -2.4525    0.9053 O   0  5  0  0  0  0  0  0  0  0  0  0
    1.0039    1.9031    0.0027 H   0  0  0  0  0  0  0  0  0  0  0  0
   -0.5459    1.8868   -0.8726 H   0  0  0  0  0  0  0  0  0  0  0  0
   -0.5289    1.8773    0.9072 H   0  0  0  0  0  0  0  0  0  0  0  0
   -1.0205   -0.3814    0.0098 H   0  0  0  0  0  0  0  0  0  0  0  0
    0.5123   -0.3556   -0.8948 H   0  0  0  0  0  0  0  0  0  0  0  0
    1.7647   -0.1336    1.2338 H   0  0  0  0  0  0  0  0  0  0  0  0
    0.2319   -0.1594    2.1383 H   0  0  0  0  0  0  0  0  0  0  0  0
    0.8275   -4.5063    1.7876 H   0  0  0  0  0  0  0  0  0  0  0  0
    1.3762   -4.3577    3.4744 H   0  0  0  0  0  0  0  0  0  0  0  0
   -0.1294   -3.6579    5.2061 H   0  0  0  0  0  0  0  0  0  0  0  0
   -2.4622   -3.3375    5.9204 H   0  0  0  0  0  0  0  0  0  0  0  0
   -3.9936   -3.3977   -0.7366 H   0  0  0  0  0  0  0  0  0  0  0  0
   -4.9652   -3.2026    1.6194 H   0  0  0  0  0  0  0  0  0  0  0  0
   -4.3961   -3.9817    6.2579 H   0  0  0  0  0  0  0  0  0  0  0  0
   -4.1772   -2.2167    6.1863 H   0  0  0  0  0  0  0  0  0  0  0  0
   -6.5704   -1.9437    5.5977 H   0  0  0  0  0  0  0  0  0  0  0  0
   -6.7894   -3.7087    5.6694 H   0  0  0  0  0  0  0  0  0  0  0  0
   -6.3595    0.7103    9.4633 H   0  0  0  0  0  0  0  0  0  0  0  0
   -6.4761    2.2798   11.3535 H   0  0  0  0  0  0  0  0  0  0  0  0
   -6.9114    1.4453   13.6263 H   0  0  0  0  0  0  0  0  0  0  0  0
   -7.2325   -0.9612   14.0229 H   0  0  0  0  0  0  0  0  0  0  0  0
   -7.1299   -2.5464   12.1451 H   0  0  0  0  0  0  0  0  0  0  0  0
   -5.8116   -5.7256    8.0570 H   0  0  0  0  0  0  0  0  0  0  0  0
   -7.4809   -5.7716    8.6730 H   0  0  0  0  0  0  0  0  0  0  0  0
   -7.1705   -5.3375    6.9749 H   0  0  0  0  0  0  0  0  0  0  0  0
  1  2  1  0  0  0  0
  1 35  1  0  0  0  0
  1 36  1  0  0  0  0
  1 37  1  0  0  0  0
  2  3  1  0  0  0  0
  2 38  1  0  0  0  0
  2 39  1  0  0  0  0
  3  4  1  0  0  0  0
  3 40  1  0  0  0  0
  3 41  1  0  0  0  0
  4  5  1  0  0  0  0
  5  6  1  1  0  0  0
  5  7  1  0  0  0  0
  5 32  1  0  0  0  0
  7  8  1  0  0  0  0
  7 42  1  0  0  0  0
  7 43  1  0  0  0  0
  8 13  2  0  0  0  0
  8  9  1  0  0  0  0
  9 10  2  0  0  0  0
  9 44  1  0  0  0  0
 10 11  1  0  0  0  0
 10 45  1  0  0  0  0
 11 12  2  0  0  0  0
 11 17  1  0  0  0  0
 12 16  1  0  0  0  0
 12 13  1  0  0  0  0
 13 14  1  0  0  0  0
 14 15  1  0  0  0  0
 15 16  2  0  0  0  0
 15 46  1  0  0  0  0
 16 47  1  0  0  0  0
 17 18  1  0  0  0  0
 18 19  1  0  0  0  0
 18 48  1  0  0  0  0
 18 49  1  0  0  0  0
 19 20  1  0  0  0  0
 19 50  1  0  0  0  0
 19 51  1  0  0  0  0
 20 24  1  0  0  0  0
 20 21  2  0  0  0  0
 21 22  1  0  0  0  0
 21 31  1  0  0  0  0
 22 23  1  0  0  0  0
 23 24  2  0  0  0  0
 23 25  1  0  0  0  0
 25 30  2  0  0  0  0
 25 26  1  0  0  0  0
 26 27  2  0  0  0  0
 26 52  1  0  0  0  0
 27 28  1  0  0  0  0
 27 53  1  0  0  0  0
 28 29  2  0  0  0  0
 28 54  1  0  0  0  0
 29 30  1  0  0  0  0
 29 55  1  0  0  0  0
 30 56  1  0  0  0  0
 31 57  1  0  0  0  0
 31 58  1  0  0  0  0
 31 59  1  0  0  0  0
 32 33  2  0  0  0  0
 32 34  1  0  0  0  0
M  CHG  1  34  -1
M  END
$$$$
