CHEMBL309778
 OpenBabel05272217113D

 49 51  0  0  1  0  0  0  0  0999 V2000
   -0.0187    1.5258    0.0104 C   0  0  0  0  0  0  0  0  0  0  0  0
    0.0021   -0.0041    0.0020 C   0  0  0  0  0  0  0  0  0  0  0  0
    0.7421   -0.5109    1.2415 C   0  0  0  0  0  0  0  0  0  0  0  0
   -1.3386   -0.4987    0.0122 O   0  0  0  0  0  0  0  0  0  0  0  0
   -1.4988   -1.7570   -0.6458 C   0  0  1  0  0  0  0  0  0  0  0  0
   -2.6458   -2.5313    0.0067 C   0  0  0  0  0  0  0  0  0  0  0  0
   -2.2788   -2.8690    1.4288 C   0  0  0  0  0  0  0  0  0  0  0  0
   -1.6203   -4.0519    1.7094 C   0  0  0  0  0  0  0  0  0  0  0  0
   -1.2832   -4.3639    3.0123 C   0  0  0  0  0  0  0  0  0  0  0  0
   -1.6056   -3.4890    4.0395 C   0  0  0  0  0  0  0  0  0  0  0  0
   -2.2660   -2.3025    3.7553 C   0  0  0  0  0  0  0  0  0  0  0  0
   -2.5963   -1.9927    2.4501 C   0  0  0  0  0  0  0  0  0  0  0  0
   -1.2755   -3.7939    5.3220 O   0  0  0  0  0  0  0  0  0  0  0  0
   -1.6387   -2.8464    6.3282 C   0  0  0  0  0  0  0  0  0  0  0  0
   -1.1951   -3.3510    7.6771 C   0  0  0  0  0  0  0  0  0  0  0  0
   -1.9216   -4.1162    8.4946 N   0  0  0  0  0  0  0  0  0  0  0  0
   -1.2410   -4.3780    9.5877 C   0  0  0  0  0  0  0  0  0  0  0  0
   -0.0444   -3.7736    9.4870 O   0  0  0  0  0  0  0  0  0  0  0  0
   -0.0388   -3.1149    8.2293 N   0  0  0  0  0  0  0  0  0  0  0  0
   -1.7090   -5.1940   10.7281 C   0  0  0  0  0  0  0  0  0  0  0  0
   -2.9788   -5.7720   10.7012 C   0  0  0  0  0  0  0  0  0  0  0  0
   -3.4111   -6.5343   11.7698 C   0  0  0  0  0  0  0  0  0  0  0  0
   -2.5863   -6.7251   12.8664 C   0  0  0  0  0  0  0  0  0  0  0  0
   -1.3248   -6.1535   12.8985 C   0  0  0  0  0  0  0  0  0  0  0  0
   -0.8803   -5.3938   11.8330 C   0  0  0  0  0  0  0  0  0  0  0  0
   -0.5257   -6.3432   13.9712 F   0  0  0  0  0  0  0  0  0  0  0  0
   -4.6404   -7.0942   11.7453 F   0  0  0  0  0  0  0  0  0  0  0  0
   -1.8128   -1.5263   -2.1016 C   0  0  0  0  0  0  0  0  0  0  0  0
   -1.8975   -2.4735   -2.8645 O   0  0  0  0  0  0  0  0  0  0  0  0
   -1.9820   -0.3924   -2.5164 O   0  5  0  0  0  0  0  0  0  0  0  0
    1.0039    1.9031    0.0027 H   0  0  0  0  0  0  0  0  0  0  0  0
   -0.5459    1.8868   -0.8726 H   0  0  0  0  0  0  0  0  0  0  0  0
   -0.5289    1.8773    0.9072 H   0  0  0  0  0  0  0  0  0  0  0  0
    0.5123   -0.3556   -0.8948 H   0  0  0  0  0  0  0  0  0  0  0  0
    1.7647   -0.1336    1.2338 H   0  0  0  0  0  0  0  0  0  0  0  0
    0.2319   -0.1594    2.1383 H   0  0  0  0  0  0  0  0  0  0  0  0
    0.7568   -1.6008    1.2356 H   0  0  0  0  0  0  0  0  0  0  0  0
   -0.5769   -2.3321   -0.5597 H   0  0  0  0  0  0  0  0  0  0  0  0
   -3.5477   -1.9193   -0.0003 H   0  0  0  0  0  0  0  0  0  0  0  0
   -2.8264   -3.4509   -0.5500 H   0  0  0  0  0  0  0  0  0  0  0  0
   -1.3695   -4.7327    0.9094 H   0  0  0  0  0  0  0  0  0  0  0  0
   -0.7694   -5.2884    3.2310 H   0  0  0  0  0  0  0  0  0  0  0  0
   -2.5181   -1.6197    4.5532 H   0  0  0  0  0  0  0  0  0  0  0  0
   -3.1064   -1.0671    2.2278 H   0  0  0  0  0  0  0  0  0  0  0  0
   -1.1549   -1.8920    6.1202 H   0  0  0  0  0  0  0  0  0  0  0  0
   -2.7206   -2.7129    6.3280 H   0  0  0  0  0  0  0  0  0  0  0  0
   -3.6228   -5.6237    9.8469 H   0  0  0  0  0  0  0  0  0  0  0  0
   -2.9282   -7.3212   13.6996 H   0  0  0  0  0  0  0  0  0  0  0  0
    0.1051   -4.9524   11.8571 H   0  0  0  0  0  0  0  0  0  0  0  0
  1  2  1  0  0  0  0
  1 31  1  0  0  0  0
  1 32  1  0  0  0  0
  1 33  1  0  0  0  0
  2  3  1  0  0  0  0
  2  4  1  0  0  0  0
  2 34  1  0  0  0  0
  3 35  1  0  0  0  0
  3 36  1  0  0  0  0
  3 37  1  0  0  0  0
  4  5  1  0  0  0  0
  5  6  1  0  0  0  0
  5 28  1  0  0  0  0
  5 38  1  1  0  0  0
  6  7  1  0  0  0  0
  6 39  1  0  0  0  0
  6 40  1  0  0  0  0
  7 12  2  0  0  0  0
  7  8  1  0  0  0  0
  8  9  2  0  0  0  0
  8 41  1  0  0  0  0
  9 10  1  0  0  0  0
  9 42  1  0  0  0  0
 10 11  2  0  0  0  0
 10 13  1  0  0  0  0
 11 12  1  0  0  0  0
 11 43  1  0  0  0  0
 12 44  1  0  0  0  0
 13 14  1  0  0  0  0
 14 15  1  0  0  0  0
 14 45  1  0  0  0  0
 14 46  1  0  0  0  0
 15 19  2  0  0  0  0
 15 16  1  0  0  0  0
 16 17  2  0  0  0  0
 17 18  1  0  0  0  0
 17 20  1  0  0  0  0
 18 19  1  0  0  0  0
 20 25  2  0  0  0  0
 20 21  1  0  0  0  0
 21 22  2  0  0  0  0
 21 47  1  0  0  0  0
 22 23  1  0  0  0  0
 22 27  1  0  0  0  0
 23 24  2  0  0  0  0
 23 48  1  0  0  0  0
 24 25  1  0  0  0  0
 24 26  1  0  0  0  0
 25 49  1  0  0  0  0
 28 29  2  0  0  0  0
 28 30  1  0  0  0  0
M  CHG  1  30  -1
M  END
$$$$
