CHEMBL118753
 OpenBabel05272217113D

 70 73  0  0  1  0  0  0  0  0999 V2000
   -0.0862    1.4932   -0.5913 C   0  0  0  0  0  0  0  0  0  0  0  0
   -0.0487   -0.0364   -0.5833 C   0  0  0  0  0  0  0  0  0  0  0  0
    0.8930   -0.5291   -1.6839 C   0  0  0  0  0  0  0  0  0  0  0  0
    0.9299   -2.0357   -1.6761 C   0  0  0  0  0  0  0  0  0  0  0  0
    1.9219   -2.6987   -0.9796 C   0  0  0  0  0  0  0  0  0  0  0  0
    1.9556   -4.0850   -0.9720 C   0  0  0  0  0  0  0  0  0  0  0  0
    0.9933   -4.8060   -1.6638 C   0  0  0  0  0  0  0  0  0  0  0  0
    0.0017   -4.1432   -2.3600 C   0  0  0  0  0  0  0  0  0  0  0  0
   -0.0351   -2.7565   -2.3632 C   0  0  0  0  0  0  0  0  0  0  0  0
   -1.0148   -2.1039   -3.0441 O   0  0  0  0  0  0  0  0  0  0  0  0
   -1.9757   -2.9095   -3.7294 C   0  0  0  0  0  0  0  0  0  0  0  0
   -2.9907   -2.0058   -4.4321 C   0  0  0  0  0  0  0  0  0  0  0  0
   -4.0195   -2.8683   -5.1658 C   0  0  0  0  0  0  0  0  0  0  0  0
   -4.9676   -2.0242   -5.8221 O   0  0  0  0  0  0  0  0  0  0  0  0
   -5.9565   -2.6367   -6.5248 C   0  0  0  0  0  0  0  0  0  0  0  0
   -6.0166   -4.0220   -6.5766 C   0  0  0  0  0  0  0  0  0  0  0  0
   -7.0230   -4.6421   -7.2911 C   0  0  0  0  0  0  0  0  0  0  0  0
   -7.9702   -3.8836   -7.9543 C   0  0  0  0  0  0  0  0  0  0  0  0
   -7.9122   -2.5033   -7.9045 C   0  0  0  0  0  0  0  0  0  0  0  0
   -6.9108   -1.8782   -7.1865 C   0  0  0  0  0  0  0  0  0  0  0  0
   -8.9457   -1.6797   -8.6289 C   0  0  1  0  0  0  0  0  0  0  0  0
   -9.0710   -2.1044  -10.0853 C   0  0  0  0  0  0  0  0  0  0  0  0
   -8.1494   -2.0153  -10.8679 O   0  0  0  0  0  0  0  0  0  0  0  0
  -10.2545   -2.5775  -10.4379 N   0  0  0  0  0  0  0  0  0  0  0  0
  -11.2929   -2.6868   -9.5886 C   0  0  0  0  0  0  0  0  0  0  0  0
  -12.4099   -3.1071   -9.8203 O   0  0  0  0  0  0  0  0  0  0  0  0
  -10.6463   -2.0707   -8.0410 S   0  0  0  0  0  0  0  0  0  0  0  0
    2.9322   -4.7377   -0.2869 O   0  0  0  0  0  0  0  0  0  0  0  0
    2.8392   -6.1623   -0.2237 C   0  0  0  0  0  0  0  0  0  0  0  0
    3.4747   -6.7651   -1.4472 C   0  0  0  0  0  0  0  0  0  0  0  0
    2.7665   -8.0546   -1.9047 C   0  0  0  0  0  0  0  0  0  0  0  0
    2.3799   -8.9730   -0.7297 C   0  0  0  0  0  0  0  0  0  0  0  0
    3.4618   -9.0609    0.3125 C   0  0  0  0  0  0  0  0  0  0  0  0
    3.1721   -8.0152    1.4086 C   0  0  0  0  0  0  0  0  0  0  0  0
    3.5900   -6.6757    1.0219 C   0  0  0  0  0  0  0  0  0  0  0  0
    0.9163    1.8821   -0.4127 H   0  0  0  0  0  0  0  0  0  0  0  0
   -0.4445    1.8428   -1.5595 H   0  0  0  0  0  0  0  0  0  0  0  0
   -0.7571    1.8442    0.1928 H   0  0  0  0  0  0  0  0  0  0  0  0
    0.3096   -0.3860    0.3849 H   0  0  0  0  0  0  0  0  0  0  0  0
   -1.0512   -0.4253   -0.7619 H   0  0  0  0  0  0  0  0  0  0  0  0
    0.5347   -0.1795   -2.6521 H   0  0  0  0  0  0  0  0  0  0  0  0
    1.8955   -0.1402   -1.5053 H   0  0  0  0  0  0  0  0  0  0  0  0
    2.6713   -2.1374   -0.4414 H   0  0  0  0  0  0  0  0  0  0  0  0
    1.0197   -5.8857   -1.6581 H   0  0  0  0  0  0  0  0  0  0  0  0
   -0.7471   -4.7045   -2.8991 H   0  0  0  0  0  0  0  0  0  0  0  0
   -1.4688   -3.5300   -4.4684 H   0  0  0  0  0  0  0  0  0  0  0  0
   -2.4924   -3.5475   -3.0124 H   0  0  0  0  0  0  0  0  0  0  0  0
   -3.4976   -1.3853   -3.6930 H   0  0  0  0  0  0  0  0  0  0  0  0
   -2.4740   -1.3678   -5.1491 H   0  0  0  0  0  0  0  0  0  0  0  0
   -3.5126   -3.4888   -5.9049 H   0  0  0  0  0  0  0  0  0  0  0  0
   -4.5363   -3.5063   -4.4488 H   0  0  0  0  0  0  0  0  0  0  0  0
   -5.2770   -4.6148   -6.0591 H   0  0  0  0  0  0  0  0  0  0  0  0
   -7.0701   -5.7203   -7.3320 H   0  0  0  0  0  0  0  0  0  0  0  0
   -8.7563   -4.3704   -8.5124 H   0  0  0  0  0  0  0  0  0  0  0  0
   -6.8686   -0.7998   -7.1443 H   0  0  0  0  0  0  0  0  0  0  0  0
   -8.7313   -0.6145   -8.5425 H   0  0  0  0  0  0  0  0  0  0  0  0
  -10.3809   -2.8603  -11.3571 H   0  0  0  0  0  0  0  0  0  0  0  0
    1.7918   -6.4586   -0.1679 H   0  0  0  0  0  0  0  0  0  0  0  0
    3.4399   -6.0370   -2.2577 H   0  0  0  0  0  0  0  0  0  0  0  0
    4.5171   -6.9946   -1.2264 H   0  0  0  0  0  0  0  0  0  0  0  0
    1.8631   -7.7844   -2.4516 H   0  0  0  0  0  0  0  0  0  0  0  0
    3.4301   -8.6013   -2.5747 H   0  0  0  0  0  0  0  0  0  0  0  0
    1.4726   -8.5876   -0.2646 H   0  0  0  0  0  0  0  0  0  0  0  0
    2.1792   -9.9728   -1.1148 H   0  0  0  0  0  0  0  0  0  0  0  0
    3.4677  -10.0588    0.7508 H   0  0  0  0  0  0  0  0  0  0  0  0
    4.4289   -8.8532   -0.1453 H   0  0  0  0  0  0  0  0  0  0  0  0
    2.1015   -8.0056    1.6132 H   0  0  0  0  0  0  0  0  0  0  0  0
    3.7008   -8.3012    2.3179 H   0  0  0  0  0  0  0  0  0  0  0  0
    4.6592   -6.6870    0.8099 H   0  0  0  0  0  0  0  0  0  0  0  0
    3.4039   -5.9944    1.8521 H   0  0  0  0  0  0  0  0  0  0  0  0
  1  2  1  0  0  0  0
  1 36  1  0  0  0  0
  1 37  1  0  0  0  0
  1 38  1  0  0  0  0
  2  3  1  0  0  0  0
  2 39  1  0  0  0  0
  2 40  1  0  0  0  0
  3  4  1  0  0  0  0
  3 41  1  0  0  0  0
  3 42  1  0  0  0  0
  4  9  2  0  0  0  0
  4  5  1  0  0  0  0
  5  6  2  0  0  0  0
  5 43  1  0  0  0  0
  6  7  1  0  0  0  0
  6 28  1  0  0  0  0
  7  8  2  0  0  0  0
  7 44  1  0  0  0  0
  8  9  1  0  0  0  0
  8 45  1  0  0  0  0
  9 10  1  0  0  0  0
 10 11  1  0  0  0  0
 11 12  1  0  0  0  0
 11 46  1  0  0  0  0
 11 47  1  0  0  0  0
 12 13  1  0  0  0  0
 12 48  1  0  0  0  0
 12 49  1  0  0  0  0
 13 14  1  0  0  0  0
 13 50  1  0  0  0  0
 13 51  1  0  0  0  0
 14 15  1  0  0  0  0
 15 20  2  0  0  0  0
 15 16  1  0  0  0  0
 16 17  2  0  0  0  0
 16 52  1  0  0  0  0
 17 18  1  0  0  0  0
 17 53  1  0  0  0  0
 18 19  2  0  0  0  0
 18 54  1  0  0  0  0
 19 20  1  0  0  0  0
 19 21  1  0  0  0  0
 20 55  1  0  0  0  0
 21 27  1  0  0  0  0
 21 22  1  0  0  0  0
 21 56  1  1  0  0  0
 22 23  2  0  0  0  0
 22 24  1  0  0  0  0
 24 25  1  0  0  0  0
 24 57  1  0  0  0  0
 25 26  2  0  0  0  0
 25 27  1  0  0  0  0
 28 29  1  0  0  0  0
 29 35  1  0  0  0  0
 29 30  1  0  0  0  0
 29 58  1  0  0  0  0
 30 31  1  0  0  0  0
 30 59  1  0  0  0  0
 30 60  1  0  0  0  0
 31 32  1  0  0  0  0
 31 61  1  0  0  0  0
 31 62  1  0  0  0  0
 32 33  1  0  0  0  0
 32 63  1  0  0  0  0
 32 64  1  0  0  0  0
 33 34  1  0  0  0  0
 33 65  1  0  0  0  0
 33 66  1  0  0  0  0
 34 35  1  0  0  0  0
 34 67  1  0  0  0  0
 34 68  1  0  0  0  0
 35 69  1  0  0  0  0
 35 70  1  0  0  0  0
M  END
$$$$
