CHEMBL377093
 OpenBabel05272217113D

 59 62  0  0  0  0  0  0  0  0999 V2000
   -0.0184    1.5028    0.0103 C   0  0  0  0  0  0  0  0  0  0  0  0
    0.0021   -0.0041    0.0020 C   0  0  0  0  0  0  0  0  0  0  0  0
    0.0058   -0.6883   -1.1982 C   0  0  0  0  0  0  0  0  0  0  0  0
    0.0251   -2.0749   -1.2058 C   0  0  0  0  0  0  0  0  0  0  0  0
    0.0406   -2.7749   -0.0083 C   0  0  0  0  0  0  0  0  0  0  0  0
    0.0369   -2.0909    1.1915 C   0  0  0  0  0  0  0  0  0  0  0  0
    0.0229   -0.7038    1.1991 C   0  0  0  0  0  0  0  0  0  0  0  0
    0.0250   -0.0303    2.3804 O   0  0  0  0  0  0  0  0  0  0  0  0
    0.0470   -0.8150    3.5745 C   0  0  0  0  0  0  0  0  0  0  0  0
    0.0459    0.0965    4.7746 C   0  0  0  0  0  0  0  0  0  0  0  0
    0.0280    1.3060    4.6215 O   0  0  0  0  0  0  0  0  0  0  0  0
    0.0630   -0.3755    5.8986 O   0  5  0  0  0  0  0  0  0  0  0  0
    0.0283   -2.7483   -2.3872 O   0  0  0  0  0  0  0  0  0  0  0  0
    0.0485   -4.1756   -2.3202 C   0  0  0  0  0  0  0  0  0  0  0  0
    0.0491   -4.7440   -3.7159 C   0  0  0  0  0  0  0  0  0  0  0  0
   -1.1024   -4.9958   -4.3030 N   0  0  0  0  0  0  0  0  0  0  0  0
   -1.1469   -5.4984   -5.5362 C   0  0  0  0  0  0  0  0  0  0  0  0
    0.0502   -5.7572   -6.2041 C   0  0  0  0  0  0  0  0  0  0  0  0
    1.2468   -5.4754   -5.5445 C   0  0  0  0  0  0  0  0  0  0  0  0
    1.2012   -4.9686   -4.3131 N   0  0  0  0  0  0  0  0  0  0  0  0
    2.5494   -5.7305   -6.2061 C   0  0  0  0  0  0  0  0  0  0  0  0
    2.5876   -6.2503   -7.4988 C   0  0  0  0  0  0  0  0  0  0  0  0
    3.8026   -6.4857   -8.1094 C   0  0  0  0  0  0  0  0  0  0  0  0
    4.9811   -6.2068   -7.4410 C   0  0  0  0  0  0  0  0  0  0  0  0
    4.9494   -5.6912   -6.1578 C   0  0  0  0  0  0  0  0  0  0  0  0
    3.7401   -5.4460   -5.5396 C   0  0  0  0  0  0  0  0  0  0  0  0
    6.3048   -6.4660   -8.1132 C   0  0  0  0  0  0  0  0  0  0  0  0
    6.7040   -5.3226   -8.8136 F   0  0  0  0  0  0  0  0  0  0  0  0
    7.2656   -6.7795   -7.1459 F   0  0  0  0  0  0  0  0  0  0  0  0
    6.1735   -7.5366   -9.0042 F   0  0  0  0  0  0  0  0  0  0  0  0
   -2.4490   -5.7790   -6.1885 C   0  0  0  0  0  0  0  0  0  0  0  0
   -2.4860   -6.3102   -7.4766 C   0  0  0  0  0  0  0  0  0  0  0  0
   -3.7005   -6.5692   -8.0787 C   0  0  0  0  0  0  0  0  0  0  0  0
   -4.8796   -6.3026   -7.4063 C   0  0  0  0  0  0  0  0  0  0  0  0
   -4.8489   -5.7750   -6.1280 C   0  0  0  0  0  0  0  0  0  0  0  0
   -3.6402   -5.5178   -5.5136 C   0  0  0  0  0  0  0  0  0  0  0  0
   -6.2026   -6.5876   -8.0692 C   0  0  0  0  0  0  0  0  0  0  0  0
   -6.6011   -7.8953   -7.7718 F   0  0  0  0  0  0  0  0  0  0  0  0
   -7.1643   -5.6881   -7.5967 F   0  0  0  0  0  0  0  0  0  0  0  0
   -6.0706   -6.4440   -9.4545 F   0  0  0  0  0  0  0  0  0  0  0  0
    1.0042    1.8801    0.0026 H   0  0  0  0  0  0  0  0  0  0  0  0
   -0.5455    1.8639   -0.8728 H   0  0  0  0  0  0  0  0  0  0  0  0
   -0.5286    1.8543    0.9071 H   0  0  0  0  0  0  0  0  0  0  0  0
   -0.0067   -0.1432   -2.1305 H   0  0  0  0  0  0  0  0  0  0  0  0
    0.0553   -3.8548   -0.0143 H   0  0  0  0  0  0  0  0  0  0  0  0
    0.0483   -2.6360    2.1238 H   0  0  0  0  0  0  0  0  0  0  0  0
   -0.8341   -1.4560    3.6044 H   0  0  0  0  0  0  0  0  0  0  0  0
    0.9456   -1.4317    3.5875 H   0  0  0  0  0  0  0  0  0  0  0  0
    0.9459   -4.5020   -1.7946 H   0  0  0  0  0  0  0  0  0  0  0  0
   -0.8339   -4.5268   -1.7853 H   0  0  0  0  0  0  0  0  0  0  0  0
    0.0507   -6.1649   -7.2042 H   0  0  0  0  0  0  0  0  0  0  0  0
    1.6681   -6.4688   -8.0214 H   0  0  0  0  0  0  0  0  0  0  0  0
    3.8334   -6.8888   -9.1109 H   0  0  0  0  0  0  0  0  0  0  0  0
    5.8726   -5.4756   -5.6405 H   0  0  0  0  0  0  0  0  0  0  0  0
    3.7164   -5.0389   -4.5396 H   0  0  0  0  0  0  0  0  0  0  0  0
   -1.5660   -6.5183   -8.0027 H   0  0  0  0  0  0  0  0  0  0  0  0
   -3.7303   -6.9804   -9.0769 H   0  0  0  0  0  0  0  0  0  0  0  0
   -5.7726   -5.5685   -5.6078 H   0  0  0  0  0  0  0  0  0  0  0  0
   -3.6173   -5.1104   -4.5137 H   0  0  0  0  0  0  0  0  0  0  0  0
  1  2  1  0  0  0  0
  1 41  1  0  0  0  0
  1 42  1  0  0  0  0
  1 43  1  0  0  0  0
  2  7  2  0  0  0  0
  2  3  1  0  0  0  0
  3  4  2  0  0  0  0
  3 44  1  0  0  0  0
  4  5  1  0  0  0  0
  4 13  1  0  0  0  0
  5  6  2  0  0  0  0
  5 45  1  0  0  0  0
  6  7  1  0  0  0  0
  6 46  1  0  0  0  0
  7  8  1  0  0  0  0
  8  9  1  0  0  0  0
  9 10  1  0  0  0  0
  9 47  1  0  0  0  0
  9 48  1  0  0  0  0
 10 11  2  0  0  0  0
 10 12  1  0  0  0  0
 13 14  1  0  0  0  0
 14 15  1  0  0  0  0
 14 49  1  0  0  0  0
 14 50  1  0  0  0  0
 15 20  2  0  0  0  0
 15 16  1  0  0  0  0
 16 17  2  0  0  0  0
 17 18  1  0  0  0  0
 17 31  1  0  0  0  0
 18 19  2  0  0  0  0
 18 51  1  0  0  0  0
 19 20  1  0  0  0  0
 19 21  1  0  0  0  0
 21 26  2  0  0  0  0
 21 22  1  0  0  0  0
 22 23  2  0  0  0  0
 22 52  1  0  0  0  0
 23 24  1  0  0  0  0
 23 53  1  0  0  0  0
 24 25  2  0  0  0  0
 24 27  1  0  0  0  0
 25 26  1  0  0  0  0
 25 54  1  0  0  0  0
 26 55  1  0  0  0  0
 27 28  1  0  0  0  0
 27 29  1  0  0  0  0
 27 30  1  0  0  0  0
 31 36  2  0  0  0  0
 31 32  1  0  0  0  0
 32 33  2  0  0  0  0
 32 56  1  0  0  0  0
 33 34  1  0  0  0  0
 33 57  1  0  0  0  0
 34 35  2  0  0  0  0
 34 37  1  0  0  0  0
 35 36  1  0  0  0  0
 35 58  1  0  0  0  0
 36 59  1  0  0  0  0
 37 38  1  0  0  0  0
 37 39  1  0  0  0  0
 37 40  1  0  0  0  0
M  CHG  1  12  -1
M  END
$$$$
