CHEMBL278590
 OpenBabel05272217113D

 67 68  0  0  0  0  0  0  0  0999 V2000
   -0.0957    1.4848    0.0654 C   0  0  0  0  0  0  0  0  0  0  0  0
   -0.0851   -0.0447    0.0263 C   0  0  0  0  0  0  0  0  0  0  0  0
    0.6412   -0.5176   -1.2345 C   0  0  0  0  0  0  0  0  0  0  0  0
    0.6518   -2.0471   -1.2736 C   0  0  0  0  0  0  0  0  0  0  0  0
    1.3782   -2.5200   -2.5344 C   0  0  0  0  0  0  0  0  0  0  0  0
    1.3887   -4.0495   -2.5734 C   0  0  0  0  0  0  0  0  0  0  0  0
    2.1151   -4.5225   -3.8343 C   0  0  0  0  0  0  0  0  0  0  0  0
    2.1252   -5.9869   -3.8717 N   0  0  0  0  0  0  0  0  0  0  0  0
    1.0324   -6.7106   -4.5261 C   0  0  0  0  0  0  0  0  0  0  0  0
    1.3747   -6.9256   -6.0017 C   0  0  0  0  0  0  0  0  0  0  0  0
    0.2505   -7.6700   -6.6749 C   0  0  0  0  0  0  0  0  0  0  0  0
    0.2589   -9.0526   -6.7043 C   0  0  0  0  0  0  0  0  0  0  0  0
   -0.7692   -9.7380   -7.3206 C   0  0  0  0  0  0  0  0  0  0  0  0
   -1.8135   -9.0368   -7.9114 C   0  0  0  0  0  0  0  0  0  0  0  0
   -1.8188   -7.6474   -7.8795 C   0  0  0  0  0  0  0  0  0  0  0  0
   -0.7899   -6.9688   -7.2569 C   0  0  0  0  0  0  0  0  0  0  0  0
   -3.1273   -9.9070   -8.6995 S   0  0  0  0  0  0  0  0  0  0  0  0
   -4.2728  -10.2914   -7.3466 C   0  0  0  0  0  0  0  0  0  0  0  0
   -3.5259  -11.0454   -6.2445 C   0  0  0  0  0  0  0  0  0  0  0  0
   -4.8446   -8.9913   -6.7776 C   0  0  0  0  0  0  0  0  0  0  0  0
   -5.3971  -11.1486   -7.8684 C   0  0  0  0  0  0  0  0  0  0  0  0
   -5.4231  -11.4704   -9.0441 O   0  0  0  0  0  0  0  0  0  0  0  0
   -6.2806  -11.5204   -7.1150 O   0  5  0  0  0  0  0  0  0  0  0  0
    3.1399   -6.6685   -3.3040 C   0  0  0  0  0  0  0  0  0  0  0  0
    3.1484   -7.8840   -3.3350 O   0  0  0  0  0  0  0  0  0  0  0  0
    4.1453   -6.0028   -2.7019 N   0  0  0  0  0  0  0  0  0  0  0  0
    5.2594   -6.7033   -2.2187 C   0  0  0  0  0  0  0  0  0  0  0  0
    5.7159   -7.8300   -2.8881 C   0  0  0  0  0  0  0  0  0  0  0  0
    6.8142   -8.5189   -2.4108 C   0  0  0  0  0  0  0  0  0  0  0  0
    7.4602   -8.0869   -1.2647 C   0  0  0  0  0  0  0  0  0  0  0  0
    7.0075   -6.9636   -0.5939 C   0  0  0  0  0  0  0  0  0  0  0  0
    5.9121   -6.2671   -1.0713 C   0  0  0  0  0  0  0  0  0  0  0  0
    5.4736   -5.1674   -0.4205 F   0  0  0  0  0  0  0  0  0  0  0  0
    8.5337   -8.7629   -0.8002 F   0  0  0  0  0  0  0  0  0  0  0  0
    0.9294    1.8551    0.0761 H   0  0  0  0  0  0  0  0  0  0  0  0
   -0.6109    1.8672   -0.8158 H   0  0  0  0  0  0  0  0  0  0  0  0
   -0.6131    1.8217    0.9636 H   0  0  0  0  0  0  0  0  0  0  0  0
    0.4301   -0.4271    0.9075 H   0  0  0  0  0  0  0  0  0  0  0  0
   -1.1102   -0.4150    0.0156 H   0  0  0  0  0  0  0  0  0  0  0  0
    0.1260   -0.1352   -2.1157 H   0  0  0  0  0  0  0  0  0  0  0  0
    1.6664   -0.1473   -1.2238 H   0  0  0  0  0  0  0  0  0  0  0  0
    1.1670   -2.4295   -0.3924 H   0  0  0  0  0  0  0  0  0  0  0  0
   -0.3733   -2.4174   -1.2843 H   0  0  0  0  0  0  0  0  0  0  0  0
    0.8629   -2.1376   -3.4155 H   0  0  0  0  0  0  0  0  0  0  0  0
    2.4033   -2.1498   -2.5236 H   0  0  0  0  0  0  0  0  0  0  0  0
    1.9040   -4.4319   -1.6923 H   0  0  0  0  0  0  0  0  0  0  0  0
    0.3636   -4.4198   -2.5842 H   0  0  0  0  0  0  0  0  0  0  0  0
    1.5999   -4.1401   -4.7154 H   0  0  0  0  0  0  0  0  0  0  0  0
    3.1402   -4.1522   -3.8235 H   0  0  0  0  0  0  0  0  0  0  0  0
    0.8943   -7.6767   -4.0406 H   0  0  0  0  0  0  0  0  0  0  0  0
    0.1134   -6.1296   -4.4472 H   0  0  0  0  0  0  0  0  0  0  0  0
    1.5128   -5.9595   -6.4872 H   0  0  0  0  0  0  0  0  0  0  0  0
    2.2936   -7.5065   -6.0806 H   0  0  0  0  0  0  0  0  0  0  0  0
    1.0708   -9.5969   -6.2450 H   0  0  0  0  0  0  0  0  0  0  0  0
   -0.7616  -10.8178   -7.3438 H   0  0  0  0  0  0  0  0  0  0  0  0
   -2.6287   -7.0991   -8.3376 H   0  0  0  0  0  0  0  0  0  0  0  0
   -0.7954   -5.8892   -7.2282 H   0  0  0  0  0  0  0  0  0  0  0  0
   -2.7711  -10.3930   -5.8053 H   0  0  0  0  0  0  0  0  0  0  0  0
   -4.2315  -11.3551   -5.4737 H   0  0  0  0  0  0  0  0  0  0  0  0
   -3.0428  -11.9253   -6.6695 H   0  0  0  0  0  0  0  0  0  0  0  0
   -5.2997   -8.4122   -7.5811 H   0  0  0  0  0  0  0  0  0  0  0  0
   -5.5986   -9.2244   -6.0257 H   0  0  0  0  0  0  0  0  0  0  0  0
   -4.0430   -8.4112   -6.3206 H   0  0  0  0  0  0  0  0  0  0  0  0
    4.0981   -5.0390   -2.6030 H   0  0  0  0  0  0  0  0  0  0  0  0
    5.2125   -8.1683   -3.7817 H   0  0  0  0  0  0  0  0  0  0  0  0
    7.1692   -9.3956   -2.9321 H   0  0  0  0  0  0  0  0  0  0  0  0
    7.5125   -6.6285    0.3000 H   0  0  0  0  0  0  0  0  0  0  0  0
  1  2  1  0  0  0  0
  1 35  1  0  0  0  0
  1 36  1  0  0  0  0
  1 37  1  0  0  0  0
  2  3  1  0  0  0  0
  2 38  1  0  0  0  0
  2 39  1  0  0  0  0
  3  4  1  0  0  0  0
  3 40  1  0  0  0  0
  3 41  1  0  0  0  0
  4  5  1  0  0  0  0
  4 42  1  0  0  0  0
  4 43  1  0  0  0  0
  5  6  1  0  0  0  0
  5 44  1  0  0  0  0
  5 45  1  0  0  0  0
  6  7  1  0  0  0  0
  6 46  1  0  0  0  0
  6 47  1  0  0  0  0
  7  8  1  0  0  0  0
  7 48  1  0  0  0  0
  7 49  1  0  0  0  0
  8  9  1  0  0  0  0
  8 24  1  0  0  0  0
  9 10  1  0  0  0  0
  9 50  1  0  0  0  0
  9 51  1  0  0  0  0
 10 11  1  0  0  0  0
 10 52  1  0  0  0  0
 10 53  1  0  0  0  0
 11 16  2  0  0  0  0
 11 12  1  0  0  0  0
 12 13  2  0  0  0  0
 12 54  1  0  0  0  0
 13 14  1  0  0  0  0
 13 55  1  0  0  0  0
 14 15  2  0  0  0  0
 14 17  1  0  0  0  0
 15 16  1  0  0  0  0
 15 56  1  0  0  0  0
 16 57  1  0  0  0  0
 17 18  1  0  0  0  0
 18 19  1  0  0  0  0
 18 20  1  0  0  0  0
 18 21  1  0  0  0  0
 19 58  1  0  0  0  0
 19 59  1  0  0  0  0
 19 60  1  0  0  0  0
 20 61  1  0  0  0  0
 20 62  1  0  0  0  0
 20 63  1  0  0  0  0
 21 22  2  0  0  0  0
 21 23  1  0  0  0  0
 24 25  2  0  0  0  0
 24 26  1  0  0  0  0
 26 27  1  0  0  0  0
 26 64  1  0  0  0  0
 27 32  2  0  0  0  0
 27 28  1  0  0  0  0
 28 29  2  0  0  0  0
 28 65  1  0  0  0  0
 29 30  1  0  0  0  0
 29 66  1  0  0  0  0
 30 31  2  0  0  0  0
 30 34  1  0  0  0  0
 31 32  1  0  0  0  0
 31 67  1  0  0  0  0
 32 33  1  0  0  0  0
M  CHG  1  23  -1
M  END
$$$$
