CHEMBL395924
 OpenBabel05272217113D

 64 67  0  0  0  0  0  0  0  0999 V2000
   -1.4789   -0.2562   -0.3699 C   0  0  0  0  0  0  0  0  0  0  0  0
   -0.0199    0.1619   -0.1767 C   0  0  0  0  0  0  0  0  0  0  0  0
    0.1469    1.6298   -0.5745 C   0  0  0  0  0  0  0  0  0  0  0  0
    0.3656   -0.0135    1.2696 C   0  0  0  0  0  0  0  0  0  0  0  0
    1.2764   -0.7660    1.5707 O   0  0  0  0  0  0  0  0  0  0  0  0
   -0.2333    0.5971    2.1385 O   0  5  0  0  0  0  0  0  0  0  0  0
    0.8214   -0.6522   -0.9960 O   0  0  0  0  0  0  0  0  0  0  0  0
    2.1554   -0.3953   -0.9577 C   0  0  0  0  0  0  0  0  0  0  0  0
    2.6591    0.5304   -0.0551 C   0  0  0  0  0  0  0  0  0  0  0  0
    4.0153    0.7894   -0.0178 C   0  0  0  0  0  0  0  0  0  0  0  0
    4.8709    0.1270   -0.8789 C   0  0  0  0  0  0  0  0  0  0  0  0
    4.3715   -0.7954   -1.7794 C   0  0  0  0  0  0  0  0  0  0  0  0
    3.0163   -1.0623   -1.8168 C   0  0  0  0  0  0  0  0  0  0  0  0
    5.3066   -1.5151   -2.7167 C   0  0  0  0  0  0  0  0  0  0  0  0
    5.7962   -2.8059   -2.0571 C   0  0  0  0  0  0  0  0  0  0  0  0
    6.7457   -3.5366   -3.0087 C   0  0  0  0  0  0  0  0  0  0  0  0
    7.2145   -4.7725   -2.3772 N   0  0  0  0  0  0  0  0  0  0  0  0
    6.4657   -6.0183   -2.5603 C   0  0  0  0  0  0  0  0  0  0  0  0
    6.9913   -6.7524   -3.7955 C   0  0  0  0  0  0  0  0  0  0  0  0
    8.3442   -7.1540   -3.5711 O   0  0  0  0  0  0  0  0  0  0  0  0
    8.9642   -7.8233   -4.5784 C   0  0  0  0  0  0  0  0  0  0  0  0
    8.2863   -8.0830   -5.7606 C   0  0  0  0  0  0  0  0  0  0  0  0
    8.9189   -8.7632   -6.7831 C   0  0  0  0  0  0  0  0  0  0  0  0
   10.2265   -9.1853   -6.6289 C   0  0  0  0  0  0  0  0  0  0  0  0
   10.9042   -8.9281   -5.4515 C   0  0  0  0  0  0  0  0  0  0  0  0
   10.2780   -8.2429   -4.4283 C   0  0  0  0  0  0  0  0  0  0  0  0
    8.3585   -4.7633   -1.6117 C   0  0  0  0  0  0  0  0  0  0  0  0
    9.0969   -3.7082   -1.3797 N   0  0  0  0  0  0  0  0  0  0  0  0
   10.1421   -4.0727   -0.5872 C   0  0  0  0  0  0  0  0  0  0  0  0
   11.2214   -3.3802   -0.0367 C   0  0  0  0  0  0  0  0  0  0  0  0
   12.1368   -4.0509    0.7444 C   0  0  0  0  0  0  0  0  0  0  0  0
   11.9919   -5.4085    0.9856 C   0  0  0  0  0  0  0  0  0  0  0  0
   10.9290   -6.1053    0.4472 C   0  0  0  0  0  0  0  0  0  0  0  0
    9.9990   -5.4462   -0.3402 C   0  0  0  0  0  0  0  0  0  0  0  0
    8.8772   -5.8359   -0.9885 O   0  0  0  0  0  0  0  0  0  0  0  0
   -1.7830   -0.0506   -1.3962 H   0  0  0  0  0  0  0  0  0  0  0  0
   -1.5812   -1.3223   -0.1673 H   0  0  0  0  0  0  0  0  0  0  0  0
   -2.1120    0.3064    0.3163 H   0  0  0  0  0  0  0  0  0  0  0  0
   -0.3260    2.2652    0.1743 H   0  0  0  0  0  0  0  0  0  0  0  0
    1.2081    1.8708   -0.6377 H   0  0  0  0  0  0  0  0  0  0  0  0
   -0.3225    1.7992   -1.5436 H   0  0  0  0  0  0  0  0  0  0  0  0
    1.9912    1.0482    0.6173 H   0  0  0  0  0  0  0  0  0  0  0  0
    4.4078    1.5101    0.6843 H   0  0  0  0  0  0  0  0  0  0  0  0
    5.9310    0.3309   -0.8482 H   0  0  0  0  0  0  0  0  0  0  0  0
    2.6272   -1.7863   -2.5173 H   0  0  0  0  0  0  0  0  0  0  0  0
    4.7808   -1.7560   -3.6406 H   0  0  0  0  0  0  0  0  0  0  0  0
    6.1601   -0.8752   -2.9406 H   0  0  0  0  0  0  0  0  0  0  0  0
    6.3221   -2.5650   -1.1332 H   0  0  0  0  0  0  0  0  0  0  0  0
    4.9427   -3.4458   -1.8331 H   0  0  0  0  0  0  0  0  0  0  0  0
    6.2198   -3.7774   -3.9326 H   0  0  0  0  0  0  0  0  0  0  0  0
    7.5992   -2.8966   -3.2327 H   0  0  0  0  0  0  0  0  0  0  0  0
    6.5914   -6.6503   -1.6811 H   0  0  0  0  0  0  0  0  0  0  0  0
    5.4084   -5.7903   -2.6956 H   0  0  0  0  0  0  0  0  0  0  0  0
    6.3772   -7.6332   -3.9834 H   0  0  0  0  0  0  0  0  0  0  0  0
    6.9478   -6.0883   -4.6587 H   0  0  0  0  0  0  0  0  0  0  0  0
    7.2647   -7.7541   -5.8812 H   0  0  0  0  0  0  0  0  0  0  0  0
    8.3916   -8.9656   -7.7036 H   0  0  0  0  0  0  0  0  0  0  0  0
   10.7192   -9.7172   -7.4294 H   0  0  0  0  0  0  0  0  0  0  0  0
   11.9254   -9.2591   -5.3334 H   0  0  0  0  0  0  0  0  0  0  0  0
   10.8092   -8.0383   -3.5105 H   0  0  0  0  0  0  0  0  0  0  0  0
   11.3387   -2.3228   -0.2225 H   0  0  0  0  0  0  0  0  0  0  0  0
   12.9725   -3.5161    1.1710 H   0  0  0  0  0  0  0  0  0  0  0  0
   12.7159   -5.9244    1.5988 H   0  0  0  0  0  0  0  0  0  0  0  0
   10.8227   -7.1628    0.6391 H   0  0  0  0  0  0  0  0  0  0  0  0
  1  2  1  0  0  0  0
  1 36  1  0  0  0  0
  1 37  1  0  0  0  0
  1 38  1  0  0  0  0
  2  3  1  0  0  0  0
  2  4  1  0  0  0  0
  2  7  1  0  0  0  0
  3 39  1  0  0  0  0
  3 40  1  0  0  0  0
  3 41  1  0  0  0  0
  4  5  2  0  0  0  0
  4  6  1  0  0  0  0
  7  8  1  0  0  0  0
  8 13  2  0  0  0  0
  8  9  1  0  0  0  0
  9 10  2  0  0  0  0
  9 42  1  0  0  0  0
 10 11  1  0  0  0  0
 10 43  1  0  0  0  0
 11 12  2  0  0  0  0
 11 44  1  0  0  0  0
 12 13  1  0  0  0  0
 12 14  1  0  0  0  0
 13 45  1  0  0  0  0
 14 15  1  0  0  0  0
 14 46  1  0  0  0  0
 14 47  1  0  0  0  0
 15 16  1  0  0  0  0
 15 48  1  0  0  0  0
 15 49  1  0  0  0  0
 16 17  1  0  0  0  0
 16 50  1  0  0  0  0
 16 51  1  0  0  0  0
 17 18  1  0  0  0  0
 17 27  1  0  0  0  0
 18 19  1  0  0  0  0
 18 52  1  0  0  0  0
 18 53  1  0  0  0  0
 19 20  1  0  0  0  0
 19 54  1  0  0  0  0
 19 55  1  0  0  0  0
 20 21  1  0  0  0  0
 21 26  2  0  0  0  0
 21 22  1  0  0  0  0
 22 23  2  0  0  0  0
 22 56  1  0  0  0  0
 23 24  1  0  0  0  0
 23 57  1  0  0  0  0
 24 25  2  0  0  0  0
 24 58  1  0  0  0  0
 25 26  1  0  0  0  0
 25 59  1  0  0  0  0
 26 60  1  0  0  0  0
 27 35  1  0  0  0  0
 27 28  2  0  0  0  0
 28 29  1  0  0  0  0
 29 34  2  0  0  0  0
 29 30  1  0  0  0  0
 30 31  2  0  0  0  0
 30 61  1  0  0  0  0
 31 32  1  0  0  0  0
 31 62  1  0  0  0  0
 32 33  2  0  0  0  0
 32 63  1  0  0  0  0
 33 34  1  0  0  0  0
 33 64  1  0  0  0  0
 34 35  1  0  0  0  0
M  CHG  1   6  -1
M  END
$$$$
