CHEMBL237710
 OpenBabel05272217113D

 69 72  0  0  0  0  0  0  0  0999 V2000
    4.5131   -3.0224   -1.4590 C   0  0  0  0  0  0  0  0  0  0  0  0
    3.2584   -2.2104   -1.6528 C   0  0  0  0  0  0  0  0  0  0  0  0
    2.0476   -2.8460   -1.8480 C   0  0  0  0  0  0  0  0  0  0  0  0
    0.8928   -2.0986   -2.0263 C   0  0  0  0  0  0  0  0  0  0  0  0
    0.9540   -0.7126   -2.0086 C   0  0  0  0  0  0  0  0  0  0  0  0
    2.1646   -0.0774   -1.8134 C   0  0  0  0  0  0  0  0  0  0  0  0
    3.3186   -0.8251   -1.6294 C   0  0  0  0  0  0  0  0  0  0  0  0
    4.5096   -0.1995   -1.4312 O   0  0  0  0  0  0  0  0  0  0  0  0
    4.4802    1.2222   -1.2906 C   0  0  0  0  0  0  0  0  0  0  0  0
    3.6005    1.5985   -0.0967 C   0  0  0  0  0  0  0  0  0  0  0  0
    5.9009    1.7415   -1.0610 C   0  0  0  0  0  0  0  0  0  0  0  0
    3.9163    1.8394   -2.5444 C   0  0  0  0  0  0  0  0  0  0  0  0
    3.5715    1.1278   -3.4724 O   0  0  0  0  0  0  0  0  0  0  0  0
    3.8048    3.0505   -2.6308 O   0  5  0  0  0  0  0  0  0  0  0  0
   -0.2989   -2.7241   -2.2190 O   0  0  0  0  0  0  0  0  0  0  0  0
   -0.2988   -4.0789   -2.3228 C   0  0  0  0  0  0  0  0  0  0  0  0
   -0.1632   -4.8632   -1.1859 C   0  0  0  0  0  0  0  0  0  0  0  0
   -0.1634   -6.2400   -1.2942 C   0  0  0  0  0  0  0  0  0  0  0  0
   -0.2981   -6.8373   -2.5342 C   0  0  0  0  0  0  0  0  0  0  0  0
   -0.4334   -6.0584   -3.6683 C   0  0  0  0  0  0  0  0  0  0  0  0
   -0.4401   -4.6807   -3.5649 C   0  0  0  0  0  0  0  0  0  0  0  0
   -0.5795   -6.7127   -5.0180 C   0  0  0  0  0  0  0  0  0  0  0  0
   -1.9993   -6.9376   -5.3005 N   0  0  0  0  0  0  0  0  0  0  0  0
   -2.3725   -7.5152   -6.4596 C   0  0  0  0  0  0  0  0  0  0  0  0
   -1.5308   -7.8497   -7.2709 O   0  0  0  0  0  0  0  0  0  0  0  0
   -3.8023   -7.7417   -6.7441 C   0  0  0  0  0  0  0  0  0  0  0  0
   -4.7731   -7.3538   -5.8174 C   0  0  0  0  0  0  0  0  0  0  0  0
   -6.1069   -7.5677   -6.0893 C   0  0  0  0  0  0  0  0  0  0  0  0
   -6.4907   -8.1667   -7.2783 C   0  0  0  0  0  0  0  0  0  0  0  0
   -5.5420   -8.5550   -8.2029 C   0  0  0  0  0  0  0  0  0  0  0  0
   -4.1949   -8.3421   -7.9483 C   0  0  0  0  0  0  0  0  0  0  0  0
   -3.2619   -8.7180   -8.8582 O   0  0  0  0  0  0  0  0  0  0  0  0
   -3.6937   -9.1928  -10.0559 C   0  0  0  0  0  0  0  0  0  0  0  0
   -4.1768   -8.3168  -11.0175 C   0  0  0  0  0  0  0  0  0  0  0  0
   -4.6152   -8.8020  -12.2342 C   0  0  0  0  0  0  0  0  0  0  0  0
   -4.5731  -10.1594  -12.4943 C   0  0  0  0  0  0  0  0  0  0  0  0
   -4.0926  -11.0345  -11.5377 C   0  0  0  0  0  0  0  0  0  0  0  0
   -3.6472  -10.5539  -10.3216 C   0  0  0  0  0  0  0  0  0  0  0  0
   -7.9526   -8.3962   -7.5636 C   0  0  0  0  0  0  0  0  0  0  0  0
   -8.7167   -7.9251   -6.4906 F   0  0  0  0  0  0  0  0  0  0  0  0
   -8.3133   -7.7115   -8.7291 F   0  0  0  0  0  0  0  0  0  0  0  0
   -8.1848   -9.7649   -7.7360 F   0  0  0  0  0  0  0  0  0  0  0  0
    4.6524   -3.2283   -0.3977 H   0  0  0  0  0  0  0  0  0  0  0  0
    4.4248   -3.9629   -2.0030 H   0  0  0  0  0  0  0  0  0  0  0  0
    5.3695   -2.4635   -1.8362 H   0  0  0  0  0  0  0  0  0  0  0  0
    2.0001   -3.9249   -1.8622 H   0  0  0  0  0  0  0  0  0  0  0  0
    0.0550   -0.1305   -2.1478 H   0  0  0  0  0  0  0  0  0  0  0  0
    2.2123    1.0015   -1.7996 H   0  0  0  0  0  0  0  0  0  0  0  0
    3.9617    1.0880    0.7960 H   0  0  0  0  0  0  0  0  0  0  0  0
    3.6416    2.6765    0.0594 H   0  0  0  0  0  0  0  0  0  0  0  0
    2.5713    1.2992   -0.2951 H   0  0  0  0  0  0  0  0  0  0  0  0
    6.5050    1.5515   -1.9482 H   0  0  0  0  0  0  0  0  0  0  0  0
    5.8689    2.8134   -0.8660 H   0  0  0  0  0  0  0  0  0  0  0  0
    6.3410    1.2295   -0.2053 H   0  0  0  0  0  0  0  0  0  0  0  0
   -0.0572   -4.3972   -0.2173 H   0  0  0  0  0  0  0  0  0  0  0  0
   -0.0579   -6.8508   -0.4098 H   0  0  0  0  0  0  0  0  0  0  0  0
   -0.2973   -7.9141   -2.6168 H   0  0  0  0  0  0  0  0  0  0  0  0
   -0.5502   -4.0727   -4.4506 H   0  0  0  0  0  0  0  0  0  0  0  0
   -0.1550   -6.0640   -5.7842 H   0  0  0  0  0  0  0  0  0  0  0  0
   -0.0534   -7.6673   -5.0178 H   0  0  0  0  0  0  0  0  0  0  0  0
   -2.6708   -6.6708   -4.6533 H   0  0  0  0  0  0  0  0  0  0  0  0
   -4.4786   -6.8872   -4.8890 H   0  0  0  0  0  0  0  0  0  0  0  0
   -6.8565   -7.2674   -5.3722 H   0  0  0  0  0  0  0  0  0  0  0  0
   -5.8490   -9.0213   -9.1274 H   0  0  0  0  0  0  0  0  0  0  0  0
   -4.2103   -7.2565  -10.8146 H   0  0  0  0  0  0  0  0  0  0  0  0
   -4.9916   -8.1206  -12.9828 H   0  0  0  0  0  0  0  0  0  0  0  0
   -4.9163  -10.5367  -13.4463 H   0  0  0  0  0  0  0  0  0  0  0  0
   -4.0611  -12.0943  -11.7432 H   0  0  0  0  0  0  0  0  0  0  0  0
   -3.2672  -11.2373   -9.5767 H   0  0  0  0  0  0  0  0  0  0  0  0
  1  2  1  0  0  0  0
  1 43  1  0  0  0  0
  1 44  1  0  0  0  0
  1 45  1  0  0  0  0
  2  7  2  0  0  0  0
  2  3  1  0  0  0  0
  3  4  2  0  0  0  0
  3 46  1  0  0  0  0
  4  5  1  0  0  0  0
  4 15  1  0  0  0  0
  5  6  2  0  0  0  0
  5 47  1  0  0  0  0
  6  7  1  0  0  0  0
  6 48  1  0  0  0  0
  7  8  1  0  0  0  0
  8  9  1  0  0  0  0
  9 10  1  0  0  0  0
  9 11  1  0  0  0  0
  9 12  1  0  0  0  0
 10 49  1  0  0  0  0
 10 50  1  0  0  0  0
 10 51  1  0  0  0  0
 11 52  1  0  0  0  0
 11 53  1  0  0  0  0
 11 54  1  0  0  0  0
 12 13  2  0  0  0  0
 12 14  1  0  0  0  0
 15 16  1  0  0  0  0
 16 21  2  0  0  0  0
 16 17  1  0  0  0  0
 17 18  2  0  0  0  0
 17 55  1  0  0  0  0
 18 19  1  0  0  0  0
 18 56  1  0  0  0  0
 19 20  2  0  0  0  0
 19 57  1  0  0  0  0
 20 21  1  0  0  0  0
 20 22  1  0  0  0  0
 21 58  1  0  0  0  0
 22 23  1  0  0  0  0
 22 59  1  0  0  0  0
 22 60  1  0  0  0  0
 23 24  1  0  0  0  0
 23 61  1  0  0  0  0
 24 25  2  0  0  0  0
 24 26  1  0  0  0  0
 26 31  2  0  0  0  0
 26 27  1  0  0  0  0
 27 28  2  0  0  0  0
 27 62  1  0  0  0  0
 28 29  1  0  0  0  0
 28 63  1  0  0  0  0
 29 30  2  0  0  0  0
 29 39  1  0  0  0  0
 30 31  1  0  0  0  0
 30 64  1  0  0  0  0
 31 32  1  0  0  0  0
 32 33  1  0  0  0  0
 33 38  2  0  0  0  0
 33 34  1  0  0  0  0
 34 35  2  0  0  0  0
 34 65  1  0  0  0  0
 35 36  1  0  0  0  0
 35 66  1  0  0  0  0
 36 37  2  0  0  0  0
 36 67  1  0  0  0  0
 37 38  1  0  0  0  0
 37 68  1  0  0  0  0
 38 69  1  0  0  0  0
 39 40  1  0  0  0  0
 39 41  1  0  0  0  0
 39 42  1  0  0  0  0
M  CHG  1  14  -1
M  END
$$$$
