CHEMBL232397
 OpenBabel05272217113D

 56 59  0  0  0  0  0  0  0  0999 V2000
   -0.0167    1.3781    0.0096 C   0  0  0  0  0  0  0  0  0  0  0  0
    1.1709    2.0855    0.0021 C   0  0  0  0  0  0  0  0  0  0  0  0
    2.3773    1.4107   -0.0130 C   0  0  0  0  0  0  0  0  0  0  0  0
    2.3960    0.0285   -0.0201 C   0  0  0  0  0  0  0  0  0  0  0  0
    1.2085   -0.6789   -0.0117 C   0  0  0  0  0  0  0  0  0  0  0  0
    0.0021   -0.0041    0.0020 C   0  0  0  0  0  0  0  0  0  0  0  0
   -1.2926   -0.7753    0.0107 C   0  0  0  0  0  0  0  0  0  0  0  0
   -1.7152   -1.0118   -1.3338 O   0  0  0  0  0  0  0  0  0  0  0  0
   -2.8744   -1.7003   -1.5041 C   0  0  0  0  0  0  0  0  0  0  0  0
   -3.5935   -2.1342   -0.3998 C   0  0  0  0  0  0  0  0  0  0  0  0
   -4.7718   -2.8335   -0.5756 C   0  0  0  0  0  0  0  0  0  0  0  0
   -5.2345   -3.1014   -1.8507 C   0  0  0  0  0  0  0  0  0  0  0  0
   -4.5195   -2.6704   -2.9529 C   0  0  0  0  0  0  0  0  0  0  0  0
   -3.3437   -1.9654   -2.7824 C   0  0  0  0  0  0  0  0  0  0  0  0
   -6.5200   -3.8648   -2.0396 C   0  0  0  0  0  0  0  0  0  0  0  0
   -7.9100   -2.7013   -2.1070 S   0  0  0  0  0  0  0  0  0  0  0  0
   -9.3203   -3.7342   -2.3276 C   0  0  0  0  0  0  0  0  0  0  0  0
   -9.1650   -5.1119   -2.4000 C   0  0  0  0  0  0  0  0  0  0  0  0
  -10.2702   -5.9212   -2.5723 C   0  0  0  0  0  0  0  0  0  0  0  0
  -11.5325   -5.3570   -2.6725 C   0  0  0  0  0  0  0  0  0  0  0  0
  -11.6912   -3.9785   -2.6009 C   0  0  0  0  0  0  0  0  0  0  0  0
  -10.5875   -3.1675   -2.4230 C   0  0  0  0  0  0  0  0  0  0  0  0
  -11.0202   -1.7180   -2.3699 C   0  0  0  0  0  0  0  0  0  0  0  0
  -12.4451   -1.6999   -2.9628 C   0  0  0  0  0  0  0  0  0  0  0  0
  -12.9422   -3.1301   -2.6820 C   0  0  0  0  0  0  0  0  0  0  0  0
  -12.6199   -6.1560   -2.8422 O   0  0  0  0  0  0  0  0  0  0  0  0
  -12.3863   -7.5642   -2.9080 C   0  0  0  0  0  0  0  0  0  0  0  0
  -13.6975   -8.2827   -3.0967 C   0  0  0  0  0  0  0  0  0  0  0  0
  -14.7358   -7.6476   -3.1681 O   0  0  0  0  0  0  0  0  0  0  0  0
  -13.7200   -9.4990   -3.1779 O   0  5  0  0  0  0  0  0  0  0  0  0
    3.6720    2.1819   -0.0222 C   0  0  0  0  0  0  0  0  0  0  0  0
    4.0857    2.4144    1.2938 F   0  0  0  0  0  0  0  0  0  0  0  0
    4.6506    1.4423   -0.6949 F   0  0  0  0  0  0  0  0  0  0  0  0
    3.4816    3.4050   -0.6742 F   0  0  0  0  0  0  0  0  0  0  0  0
   -0.9591    1.9053    0.0259 H   0  0  0  0  0  0  0  0  0  0  0  0
    1.1563    3.1654    0.0076 H   0  0  0  0  0  0  0  0  0  0  0  0
    3.3385   -0.4987   -0.0326 H   0  0  0  0  0  0  0  0  0  0  0  0
    1.2231   -1.7588   -0.0179 H   0  0  0  0  0  0  0  0  0  0  0  0
   -1.1443   -1.7285    0.5180 H   0  0  0  0  0  0  0  0  0  0  0  0
   -2.0551   -0.1993    0.5352 H   0  0  0  0  0  0  0  0  0  0  0  0
   -3.2321   -1.9258    0.5964 H   0  0  0  0  0  0  0  0  0  0  0  0
   -5.3320   -3.1715    0.2837 H   0  0  0  0  0  0  0  0  0  0  0  0
   -4.8827   -2.8812   -3.9478 H   0  0  0  0  0  0  0  0  0  0  0  0
   -2.7879   -1.6251   -3.6436 H   0  0  0  0  0  0  0  0  0  0  0  0
   -6.4736   -4.4298   -2.9705 H   0  0  0  0  0  0  0  0  0  0  0  0
   -6.6609   -4.5513   -1.2046 H   0  0  0  0  0  0  0  0  0  0  0  0
   -8.1809   -5.5500   -2.3220 H   0  0  0  0  0  0  0  0  0  0  0  0
  -10.1514   -6.9931   -2.6293 H   0  0  0  0  0  0  0  0  0  0  0  0
  -11.0351   -1.3652   -1.3387 H   0  0  0  0  0  0  0  0  0  0  0  0
  -10.3523   -1.1016   -2.9717 H   0  0  0  0  0  0  0  0  0  0  0  0
  -13.0664   -0.9616   -2.4559 H   0  0  0  0  0  0  0  0  0  0  0  0
  -12.4159   -1.5122   -4.0361 H   0  0  0  0  0  0  0  0  0  0  0  0
  -13.5857   -3.4812   -3.4887 H   0  0  0  0  0  0  0  0  0  0  0  0
  -13.4774   -3.1537   -1.7328 H   0  0  0  0  0  0  0  0  0  0  0  0
  -11.7273   -7.7843   -3.7479 H   0  0  0  0  0  0  0  0  0  0  0  0
  -11.9187   -7.8987   -1.9820 H   0  0  0  0  0  0  0  0  0  0  0  0
  1  6  2  0  0  0  0
  1  2  1  0  0  0  0
  1 35  1  0  0  0  0
  2  3  2  0  0  0  0
  2 36  1  0  0  0  0
  3  4  1  0  0  0  0
  3 31  1  0  0  0  0
  4  5  2  0  0  0  0
  4 37  1  0  0  0  0
  5  6  1  0  0  0  0
  5 38  1  0  0  0  0
  6  7  1  0  0  0  0
  7  8  1  0  0  0  0
  7 39  1  0  0  0  0
  7 40  1  0  0  0  0
  8  9  1  0  0  0  0
  9 14  2  0  0  0  0
  9 10  1  0  0  0  0
 10 11  2  0  0  0  0
 10 41  1  0  0  0  0
 11 12  1  0  0  0  0
 11 42  1  0  0  0  0
 12 13  2  0  0  0  0
 12 15  1  0  0  0  0
 13 14  1  0  0  0  0
 13 43  1  0  0  0  0
 14 44  1  0  0  0  0
 15 16  1  0  0  0  0
 15 45  1  0  0  0  0
 15 46  1  0  0  0  0
 16 17  1  0  0  0  0
 17 22  2  0  0  0  0
 17 18  1  0  0  0  0
 18 19  2  0  0  0  0
 18 47  1  0  0  0  0
 19 20  1  0  0  0  0
 19 48  1  0  0  0  0
 20 21  2  0  0  0  0
 20 26  1  0  0  0  0
 21 25  1  0  0  0  0
 21 22  1  0  0  0  0
 22 23  1  0  0  0  0
 23 24  1  0  0  0  0
 23 49  1  0  0  0  0
 23 50  1  0  0  0  0
 24 25  1  0  0  0  0
 24 51  1  0  0  0  0
 24 52  1  0  0  0  0
 25 53  1  0  0  0  0
 25 54  1  0  0  0  0
 26 27  1  0  0  0  0
 27 28  1  0  0  0  0
 27 55  1  0  0  0  0
 27 56  1  0  0  0  0
 28 29  2  0  0  0  0
 28 30  1  0  0  0  0
 31 32  1  0  0  0  0
 31 33  1  0  0  0  0
 31 34  1  0  0  0  0
M  CHG  1  30  -1
M  END
$$$$
