CHEMBL213877
 OpenBabel05272217113D

 51 54  0  0  0  0  0  0  0  0999 V2000
    0.9206   -0.3643    0.1294 C   0  0  0  0  0  0  0  0  0  0  0  0
    2.0794    0.3472    0.3663 C   0  0  0  0  0  0  0  0  0  0  0  0
    2.4415    1.3882   -0.4863 C   0  0  0  0  0  0  0  0  0  0  0  0
    1.6293    1.7052   -1.5753 C   0  0  0  0  0  0  0  0  0  0  0  0
    0.4720    0.9859   -1.8021 C   0  0  0  0  0  0  0  0  0  0  0  0
    0.1187   -0.0461   -0.9518 C   0  0  0  0  0  0  0  0  0  0  0  0
   -1.1451   -0.8272   -1.2044 C   0  0  0  0  0  0  0  0  0  0  0  0
   -2.2933   -0.1727   -0.4802 C   0  0  0  0  0  0  0  0  0  0  0  0
   -2.1030    0.8346    0.1798 O   0  0  0  0  0  0  0  0  0  0  0  0
   -3.4125   -0.6506   -0.5544 O   0  5  0  0  0  0  0  0  0  0  0  0
    2.0717    3.0008   -2.6428 Cl  0  0  0  0  0  0  0  0  0  0  0  0
    3.6852    2.1565   -0.2366 C   0  0  0  0  0  0  0  0  0  0  0  0
    5.0141    1.6001    0.0592 C   0  0  0  0  0  0  0  0  0  0  0  0
    5.8582    2.6598    0.2169 C   0  0  0  0  0  0  0  0  0  0  0  0
    5.1572    3.7832    0.0431 O   0  0  0  0  0  0  0  0  0  0  0  0
    3.8112    3.4594   -0.2429 N   0  0  0  0  0  0  0  0  0  0  0  0
    7.3292    2.5773    0.5333 C   0  0  0  0  0  0  0  0  0  0  0  0
    8.0541    3.8824    0.8683 C   0  0  0  0  0  0  0  0  0  0  0  0
    8.3040    3.1911   -0.4736 C   0  0  0  0  0  0  0  0  0  0  0  0
    5.3655    0.1738    0.1653 C   0  0  0  0  0  0  0  0  0  0  0  0
    5.6337   -0.4625   -0.8359 O   0  0  0  0  0  0  0  0  0  0  0  0
    5.3900   -0.4263    1.3718 N   0  0  0  0  0  0  0  0  0  0  0  0
    5.7396   -1.8451    1.4773 C   0  0  0  0  0  0  0  0  0  0  0  0
    5.6928   -2.2741    2.9452 C   0  0  0  0  0  0  0  0  0  0  0  0
    4.3508   -2.1786    3.4268 O   0  0  0  0  0  0  0  0  0  0  0  0
    4.1341   -2.5262    4.7231 C   0  0  0  0  0  0  0  0  0  0  0  0
    5.1922   -2.9448    5.5160 C   0  0  0  0  0  0  0  0  0  0  0  0
    4.9702   -3.2978    6.8331 C   0  0  0  0  0  0  0  0  0  0  0  0
    3.6931   -3.2340    7.3620 C   0  0  0  0  0  0  0  0  0  0  0  0
    2.6357   -2.8168    6.5735 C   0  0  0  0  0  0  0  0  0  0  0  0
    2.8545   -2.4572    5.2565 C   0  0  0  0  0  0  0  0  0  0  0  0
    1.5289   -1.9269    4.2690 Cl  0  0  0  0  0  0  0  0  0  0  0  0
    3.4172   -3.6787    9.0173 Cl  0  0  0  0  0  0  0  0  0  0  0  0
    0.6417   -1.1741    0.7872 H   0  0  0  0  0  0  0  0  0  0  0  0
    2.7042    0.0977    1.2111 H   0  0  0  0  0  0  0  0  0  0  0  0
   -0.1581    1.2301   -2.6445 H   0  0  0  0  0  0  0  0  0  0  0  0
   -1.3533   -0.8454   -2.2742 H   0  0  0  0  0  0  0  0  0  0  0  0
   -1.0205   -1.8473   -0.8410 H   0  0  0  0  0  0  0  0  0  0  0  0
    7.6476    1.6757    1.0567 H   0  0  0  0  0  0  0  0  0  0  0  0
    7.4670    4.8007    0.8597 H   0  0  0  0  0  0  0  0  0  0  0  0
    8.8496    3.8396    1.6123 H   0  0  0  0  0  0  0  0  0  0  0  0
    9.2639    2.6936   -0.6124 H   0  0  0  0  0  0  0  0  0  0  0  0
    7.8813    3.6546   -1.3650 H   0  0  0  0  0  0  0  0  0  0  0  0
    5.1762    0.0812    2.1703 H   0  0  0  0  0  0  0  0  0  0  0  0
    5.0283   -2.4382    0.9026 H   0  0  0  0  0  0  0  0  0  0  0  0
    6.7443   -2.0019    1.0848 H   0  0  0  0  0  0  0  0  0  0  0  0
    6.0382   -3.3041    3.0339 H   0  0  0  0  0  0  0  0  0  0  0  0
    6.3377   -1.6226    3.5349 H   0  0  0  0  0  0  0  0  0  0  0  0
    6.1892   -2.9952    5.1039 H   0  0  0  0  0  0  0  0  0  0  0  0
    5.7941   -3.6241    7.4504 H   0  0  0  0  0  0  0  0  0  0  0  0
    1.6396   -2.7680    6.9880 H   0  0  0  0  0  0  0  0  0  0  0  0
  1  6  2  0  0  0  0
  1  2  1  0  0  0  0
  1 34  1  0  0  0  0
  2  3  2  0  0  0  0
  2 35  1  0  0  0  0
  3  4  1  0  0  0  0
  3 12  1  0  0  0  0
  4  5  2  0  0  0  0
  4 11  1  0  0  0  0
  5  6  1  0  0  0  0
  5 36  1  0  0  0  0
  6  7  1  0  0  0  0
  7  8  1  0  0  0  0
  7 37  1  0  0  0  0
  7 38  1  0  0  0  0
  8  9  2  0  0  0  0
  8 10  1  0  0  0  0
 12 16  2  0  0  0  0
 12 13  1  0  0  0  0
 13 14  2  0  0  0  0
 13 20  1  0  0  0  0
 14 15  1  0  0  0  0
 14 17  1  0  0  0  0
 15 16  1  0  0  0  0
 17 19  1  0  0  0  0
 17 18  1  0  0  0  0
 17 39  1  0  0  0  0
 18 19  1  0  0  0  0
 18 40  1  0  0  0  0
 18 41  1  0  0  0  0
 19 42  1  0  0  0  0
 19 43  1  0  0  0  0
 20 21  2  0  0  0  0
 20 22  1  0  0  0  0
 22 23  1  0  0  0  0
 22 44  1  0  0  0  0
 23 24  1  0  0  0  0
 23 45  1  0  0  0  0
 23 46  1  0  0  0  0
 24 25  1  0  0  0  0
 24 47  1  0  0  0  0
 24 48  1  0  0  0  0
 25 26  1  0  0  0  0
 26 31  2  0  0  0  0
 26 27  1  0  0  0  0
 27 28  2  0  0  0  0
 27 49  1  0  0  0  0
 28 29  1  0  0  0  0
 28 50  1  0  0  0  0
 29 30  2  0  0  0  0
 29 33  1  0  0  0  0
 30 31  1  0  0  0  0
 30 51  1  0  0  0  0
 31 32  1  0  0  0  0
M  CHG  1  10  -1
M  END
$$$$
