CHEMBL231696
 OpenBabel05272217113D

 68 71  0  0  1  0  0  0  0  0999 V2000
   -0.2655    1.7615   -0.5158 C   0  0  0  0  0  0  0  0  0  0  0  0
   -0.1163    0.2648   -0.4233 C   0  0  0  0  0  0  0  0  0  0  0  0
   -0.1713   -0.5064   -1.5678 C   0  0  0  0  0  0  0  0  0  0  0  0
   -0.0337   -1.8859   -1.4823 C   0  0  0  0  0  0  0  0  0  0  0  0
    0.1592   -2.4885   -0.2452 C   0  0  0  0  0  0  0  0  0  0  0  0
    0.2139   -1.7155    0.8975 C   0  0  0  0  0  0  0  0  0  0  0  0
    0.0820   -0.3372    0.8103 C   0  0  0  0  0  0  0  0  0  0  0  0
    0.1420    0.4237    1.9359 O   0  0  0  0  0  0  0  0  0  0  0  0
    0.3483   -0.2622    3.1725 C   0  0  0  0  0  0  0  0  0  0  0  0
    0.3867    0.7364    4.3005 C   0  0  0  0  0  0  0  0  0  0  0  0
    0.2500    1.9252    4.0671 O   0  0  0  0  0  0  0  0  0  0  0  0
    0.5544    0.3554    5.4465 O   0  5  0  0  0  0  0  0  0  0  0  0
   -0.1042   -2.8711   -2.9414 S   0  0  0  0  0  0  0  0  0  0  0  0
    0.1204   -4.5668   -2.3373 C   0  0  0  0  0  0  0  0  0  0  0  0
    0.0801   -5.5239   -3.5006 C   0  0  0  0  0  0  0  0  0  0  0  0
    1.1342   -6.2448   -3.7925 C   0  0  0  0  0  0  0  0  0  0  0  0
    2.3242   -6.2483   -2.8679 C   0  0  1  0  0  0  0  0  0  0  0  0
    2.6834   -7.6366   -2.5357 C   0  0  0  0  0  0  0  0  0  0  0  0
    2.9699   -8.7438   -2.2707 C   0  0  0  0  0  0  0  0  0  0  0  0
    3.3193  -10.0944   -1.9475 C   0  0  0  0  0  0  0  0  0  0  0  0
    2.5862  -11.1543   -2.4837 C   0  0  0  0  0  0  0  0  0  0  0  0
    2.9259  -12.4531   -2.1705 C   0  0  0  0  0  0  0  0  0  0  0  0
    3.9956  -12.7076   -1.3225 C   0  0  0  0  0  0  0  0  0  0  0  0
    4.7271  -11.6559   -0.7866 C   0  0  0  0  0  0  0  0  0  0  0  0
    4.3974  -10.3546   -1.1000 C   0  0  0  0  0  0  0  0  0  0  0  0
    4.3271  -13.9890   -1.0158 O   0  0  0  0  0  0  0  0  0  0  0  0
    5.4382  -14.1793   -0.1376 C   0  0  0  0  0  0  0  0  0  0  0  0
    3.4899   -5.5766   -3.5470 C   0  0  0  0  0  0  0  0  0  0  0  0
    3.9811   -6.0851   -4.7359 C   0  0  0  0  0  0  0  0  0  0  0  0
    5.0485   -5.4739   -5.3621 C   0  0  0  0  0  0  0  0  0  0  0  0
    5.6313   -4.3427   -4.7945 C   0  0  0  0  0  0  0  0  0  0  0  0
    5.1325   -3.8348   -3.5967 C   0  0  0  0  0  0  0  0  0  0  0  0
    4.0611   -4.4506   -2.9820 C   0  0  0  0  0  0  0  0  0  0  0  0
    6.7795   -3.6816   -5.4629 C   0  0  0  0  0  0  0  0  0  0  0  0
    7.2749   -4.1864   -6.6634 C   0  0  0  0  0  0  0  0  0  0  0  0
    8.3427   -3.5673   -7.2810 C   0  0  0  0  0  0  0  0  0  0  0  0
    8.9211   -2.4480   -6.7102 C   0  0  0  0  0  0  0  0  0  0  0  0
    8.4336   -1.9429   -5.5183 C   0  0  0  0  0  0  0  0  0  0  0  0
    7.3623   -2.5505   -4.8953 C   0  0  0  0  0  0  0  0  0  0  0  0
    0.7150    2.2165   -0.6555 H   0  0  0  0  0  0  0  0  0  0  0  0
   -0.9058    2.0112   -1.3618 H   0  0  0  0  0  0  0  0  0  0  0  0
   -0.7138    2.1394    0.4031 H   0  0  0  0  0  0  0  0  0  0  0  0
   -0.3216   -0.0370   -2.5287 H   0  0  0  0  0  0  0  0  0  0  0  0
    0.2660   -3.5610   -0.1776 H   0  0  0  0  0  0  0  0  0  0  0  0
    0.3638   -2.1837    1.8592 H   0  0  0  0  0  0  0  0  0  0  0  0
   -0.4673   -0.9661    3.3380 H   0  0  0  0  0  0  0  0  0  0  0  0
    1.2935   -0.8037    3.1343 H   0  0  0  0  0  0  0  0  0  0  0  0
    1.0832   -4.6482   -1.8330 H   0  0  0  0  0  0  0  0  0  0  0  0
   -0.6784   -4.8119   -1.6373 H   0  0  0  0  0  0  0  0  0  0  0  0
   -0.8179   -5.6155   -4.0937 H   0  0  0  0  0  0  0  0  0  0  0  0
    1.1504   -6.8366   -4.6958 H   0  0  0  0  0  0  0  0  0  0  0  0
    2.0759   -5.7086   -1.9541 H   0  0  0  0  0  0  0  0  0  0  0  0
    1.7536  -10.9571   -3.1428 H   0  0  0  0  0  0  0  0  0  0  0  0
    2.3592  -13.2737   -2.5850 H   0  0  0  0  0  0  0  0  0  0  0  0
    5.5579  -11.8579   -0.1269 H   0  0  0  0  0  0  0  0  0  0  0  0
    4.9697   -9.5372   -0.6867 H   0  0  0  0  0  0  0  0  0  0  0  0
    5.2347  -13.6931    0.8165 H   0  0  0  0  0  0  0  0  0  0  0  0
    5.5950  -15.2457    0.0242 H   0  0  0  0  0  0  0  0  0  0  0  0
    6.3326  -13.7441   -0.5836 H   0  0  0  0  0  0  0  0  0  0  0  0
    3.5288   -6.9621   -5.1748 H   0  0  0  0  0  0  0  0  0  0  0  0
    5.4315   -5.8719   -6.2902 H   0  0  0  0  0  0  0  0  0  0  0  0
    5.5807   -2.9585   -3.1523 H   0  0  0  0  0  0  0  0  0  0  0  0
    3.6706   -4.0550   -2.0561 H   0  0  0  0  0  0  0  0  0  0  0  0
    6.8245   -5.0607   -7.1096 H   0  0  0  0  0  0  0  0  0  0  0  0
    8.7275   -3.9577   -8.2115 H   0  0  0  0  0  0  0  0  0  0  0  0
    9.7567   -1.9669   -7.1967 H   0  0  0  0  0  0  0  0  0  0  0  0
    8.8892   -1.0689   -5.0768 H   0  0  0  0  0  0  0  0  0  0  0  0
    6.9796   -2.1527   -3.9670 H   0  0  0  0  0  0  0  0  0  0  0  0
  1  2  1  0  0  0  0
  1 40  1  0  0  0  0
  1 41  1  0  0  0  0
  1 42  1  0  0  0  0
  2  7  2  0  0  0  0
  2  3  1  0  0  0  0
  3  4  2  0  0  0  0
  3 43  1  0  0  0  0
  4  5  1  0  0  0  0
  4 13  1  0  0  0  0
  5  6  2  0  0  0  0
  5 44  1  0  0  0  0
  6  7  1  0  0  0  0
  6 45  1  0  0  0  0
  7  8  1  0  0  0  0
  8  9  1  0  0  0  0
  9 10  1  0  0  0  0
  9 46  1  0  0  0  0
  9 47  1  0  0  0  0
 10 11  2  0  0  0  0
 10 12  1  0  0  0  0
 13 14  1  0  0  0  0
 14 15  1  0  0  0  0
 14 48  1  0  0  0  0
 14 49  1  0  0  0  0
 15 16  2  0  0  0  0
 15 50  1  0  0  0  0
 16 17  1  0  0  0  0
 16 51  1  0  0  0  0
 17 18  1  0  0  0  0
 17 28  1  0  0  0  0
 17 52  1  1  0  0  0
 18 19  3  0  0  0  0
 19 20  1  0  0  0  0
 20 25  2  0  0  0  0
 20 21  1  0  0  0  0
 21 22  2  0  0  0  0
 21 53  1  0  0  0  0
 22 23  1  0  0  0  0
 22 54  1  0  0  0  0
 23 24  2  0  0  0  0
 23 26  1  0  0  0  0
 24 25  1  0  0  0  0
 24 55  1  0  0  0  0
 25 56  1  0  0  0  0
 26 27  1  0  0  0  0
 27 57  1  0  0  0  0
 27 58  1  0  0  0  0
 27 59  1  0  0  0  0
 28 33  2  0  0  0  0
 28 29  1  0  0  0  0
 29 30  2  0  0  0  0
 29 60  1  0  0  0  0
 30 31  1  0  0  0  0
 30 61  1  0  0  0  0
 31 32  2  0  0  0  0
 31 34  1  0  0  0  0
 32 33  1  0  0  0  0
 32 62  1  0  0  0  0
 33 63  1  0  0  0  0
 34 39  2  0  0  0  0
 34 35  1  0  0  0  0
 35 36  2  0  0  0  0
 35 64  1  0  0  0  0
 36 37  1  0  0  0  0
 36 65  1  0  0  0  0
 37 38  2  0  0  0  0
 37 66  1  0  0  0  0
 38 39  1  0  0  0  0
 38 67  1  0  0  0  0
 39 68  1  0  0  0  0
M  CHG  1  12  -1
M  END
$$$$
