CHEMBL391264
 OpenBabel05272217113D

 60 62  0  0  1  0  0  0  0  0999 V2000
    0.2004    1.5004   -0.1345 C   0  0  0  0  0  0  0  0  0  0  0  0
    0.0003   -0.0104    0.0005 C   0  0  0  0  0  0  0  0  0  0  0  0
    0.7299   -0.5065    1.2222 C   0  0  0  0  0  0  0  0  0  0  0  0
    2.0475   -0.9176    1.1186 C   0  0  0  0  0  0  0  0  0  0  0  0
    2.7264   -1.3745    2.2328 C   0  0  0  0  0  0  0  0  0  0  0  0
    2.0900   -1.4231    3.4621 C   0  0  0  0  0  0  0  0  0  0  0  0
    0.7573   -1.0077    3.5712 C   0  0  0  0  0  0  0  0  0  0  0  0
    0.0838   -0.5439    2.4405 C   0  0  0  0  0  0  0  0  0  0  0  0
    0.0692   -1.0555    4.8779 C   0  0  0  0  0  0  0  0  0  0  0  0
   -0.6361   -0.0412    5.4458 C   0  0  0  0  0  0  0  0  0  0  0  0
   -1.1162   -0.5223    6.6807 C   0  0  0  0  0  0  0  0  0  0  0  0
   -0.6849   -1.7925    6.8040 C   0  0  0  0  0  0  0  0  0  0  0  0
    0.0269   -2.1132    5.7106 O   0  0  0  0  0  0  0  0  0  0  0  0
    2.7562   -1.8724    4.5575 O   0  0  0  0  0  0  0  0  0  0  0  0
    4.1456   -2.1654    4.3969 C   0  0  2  0  0  0  0  0  0  0  0  0
    4.5868   -1.4598    3.6929 H   0  0  0  0  0  0  0  0  0  0  0  0
    4.3079   -3.5893    3.8611 C   0  0  0  0  0  0  0  0  0  0  0  0
    4.8517   -2.0457    5.7490 C   0  0  0  0  0  0  0  0  0  0  0  0
    4.7969   -0.5930    6.2261 C   0  0  0  0  0  0  0  0  0  0  0  0
    5.4563   -0.4812    7.4889 O   0  0  0  0  0  0  0  0  0  0  0  0
    5.4975    0.7529    8.0564 C   0  0  0  0  0  0  0  0  0  0  0  0
    4.9101    1.8332    7.4136 C   0  0  0  0  0  0  0  0  0  0  0  0
    4.9529    3.0865    7.9926 C   0  0  0  0  0  0  0  0  0  0  0  0
    5.5805    3.2651    9.2119 C   0  0  0  0  0  0  0  0  0  0  0  0
    6.1669    2.1905    9.8541 C   0  0  0  0  0  0  0  0  0  0  0  0
    6.1218    0.9337    9.2818 C   0  0  0  0  0  0  0  0  0  0  0  0
    6.8504    2.3888   11.1824 C   0  0  0  0  0  0  0  0  0  0  0  0
    5.6257    4.6336    9.8413 C   0  0  0  0  0  0  0  0  0  0  0  0
    6.9430    5.3202    9.4750 C   0  0  0  0  0  0  0  0  0  0  0  0
    6.9882    6.6887   10.1044 C   0  0  0  0  0  0  0  0  0  0  0  0
    6.0534    7.0788   10.7831 O   0  0  0  0  0  0  0  0  0  0  0  0
    7.9595    7.4059    9.9349 O   0  5  0  0  0  0  0  0  0  0  0  0
    1.2638    1.7187   -0.2329 H   0  0  0  0  0  0  0  0  0  0  0  0
   -0.3273    1.8593   -1.0182 H   0  0  0  0  0  0  0  0  0  0  0  0
   -0.1926    1.9997    0.7511 H   0  0  0  0  0  0  0  0  0  0  0  0
   -1.0631   -0.2286    0.0989 H   0  0  0  0  0  0  0  0  0  0  0  0
    0.3932   -0.5096   -0.8852 H   0  0  0  0  0  0  0  0  0  0  0  0
    2.5478   -0.8815    0.1622 H   0  0  0  0  0  0  0  0  0  0  0  0
    3.7541   -1.6943    2.1445 H   0  0  0  0  0  0  0  0  0  0  0  0
   -0.9431   -0.2185    2.5183 H   0  0  0  0  0  0  0  0  0  0  0  0
   -0.7973    0.9428    5.0310 H   0  0  0  0  0  0  0  0  0  0  0  0
   -1.7164    0.0241    7.3932 H   0  0  0  0  0  0  0  0  0  0  0  0
   -0.8820   -2.4460    7.6410 H   0  0  0  0  0  0  0  0  0  0  0  0
    3.8049   -3.6745    2.8979 H   0  0  0  0  0  0  0  0  0  0  0  0
    5.3677   -3.8128    3.7386 H   0  0  0  0  0  0  0  0  0  0  0  0
    3.8668   -4.2949    4.5651 H   0  0  0  0  0  0  0  0  0  0  0  0
    4.3537   -2.6862    6.4769 H   0  0  0  0  0  0  0  0  0  0  0  0
    5.8917   -2.3548    5.6444 H   0  0  0  0  0  0  0  0  0  0  0  0
    5.2949    0.0475    5.4982 H   0  0  0  0  0  0  0  0  0  0  0  0
    3.7569   -0.2839    6.3307 H   0  0  0  0  0  0  0  0  0  0  0  0
    4.4201    1.6943    6.4612 H   0  0  0  0  0  0  0  0  0  0  0  0
    4.4961    3.9278    7.4925 H   0  0  0  0  0  0  0  0  0  0  0  0
    6.5762    0.0937    9.7860 H   0  0  0  0  0  0  0  0  0  0  0  0
    6.1298    2.2430   11.9872 H   0  0  0  0  0  0  0  0  0  0  0  0
    7.6609    1.6672   11.2853 H   0  0  0  0  0  0  0  0  0  0  0  0
    7.2549    3.3996   11.2356 H   0  0  0  0  0  0  0  0  0  0  0  0
    4.7906    5.2302    9.4741 H   0  0  0  0  0  0  0  0  0  0  0  0
    5.5550    4.5377   10.9248 H   0  0  0  0  0  0  0  0  0  0  0  0
    7.7780    4.7237    9.8422 H   0  0  0  0  0  0  0  0  0  0  0  0
    7.0137    5.4162    8.3915 H   0  0  0  0  0  0  0  0  0  0  0  0
  1  2  1  0  0  0  0
  1 33  1  0  0  0  0
  1 34  1  0  0  0  0
  1 35  1  0  0  0  0
  2  3  1  0  0  0  0
  2 36  1  0  0  0  0
  2 37  1  0  0  0  0
  3  8  2  0  0  0  0
  3  4  1  0  0  0  0
  4  5  2  0  0  0  0
  4 38  1  0  0  0  0
  5  6  1  0  0  0  0
  5 39  1  0  0  0  0
  6  7  2  0  0  0  0
  6 14  1  0  0  0  0
  7  8  1  0  0  0  0
  7  9  1  0  0  0  0
  8 40  1  0  0  0  0
  9 13  1  0  0  0  0
  9 10  2  0  0  0  0
 10 11  1  0  0  0  0
 10 41  1  0  0  0  0
 11 12  2  0  0  0  0
 11 42  1  0  0  0  0
 12 13  1  0  0  0  0
 12 43  1  0  0  0  0
 14 15  1  0  0  0  0
 15 16  1  6  0  0  0
 15 17  1  0  0  0  0
 15 18  1  0  0  0  0
 17 44  1  0  0  0  0
 17 45  1  0  0  0  0
 17 46  1  0  0  0  0
 18 19  1  0  0  0  0
 18 47  1  0  0  0  0
 18 48  1  0  0  0  0
 19 20  1  0  0  0  0
 19 49  1  0  0  0  0
 19 50  1  0  0  0  0
 20 21  1  0  0  0  0
 21 26  2  0  0  0  0
 21 22  1  0  0  0  0
 22 23  2  0  0  0  0
 22 51  1  0  0  0  0
 23 24  1  0  0  0  0
 23 52  1  0  0  0  0
 24 25  2  0  0  0  0
 24 28  1  0  0  0  0
 25 26  1  0  0  0  0
 25 27  1  0  0  0  0
 26 53  1  0  0  0  0
 27 54  1  0  0  0  0
 27 55  1  0  0  0  0
 27 56  1  0  0  0  0
 28 29  1  0  0  0  0
 28 57  1  0  0  0  0
 28 58  1  0  0  0  0
 29 30  1  0  0  0  0
 29 59  1  0  0  0  0
 29 60  1  0  0  0  0
 30 31  2  0  0  0  0
 30 32  1  0  0  0  0
M  CHG  1  32  -1
M  END
$$$$
