CHEMBL427237
 OpenBabel05272217113D

 58 61  0  0  1  0  0  0  0  0999 V2000
    0.0669    2.6769   -1.1873 C   0  0  0  0  0  0  0  0  0  0  0  0
    0.0523    1.1691   -0.9279 C   0  0  0  0  0  0  0  0  0  0  0  0
    0.7671    0.4478   -2.0723 C   0  0  0  0  0  0  0  0  0  0  0  0
    0.7528   -1.0373   -1.8168 C   0  0  0  0  0  0  0  0  0  0  0  0
    1.7893   -1.6364   -1.0975 C   0  0  0  0  0  0  0  0  0  0  0  0
    3.0111   -1.1330   -0.4651 C   0  0  0  0  0  0  0  0  0  0  0  0
    3.6302   -2.1877    0.0886 C   0  0  0  0  0  0  0  0  0  0  0  0
    2.9051   -3.3256   -0.1372 N   0  0  0  0  0  0  0  0  0  0  0  0
    3.1515   -4.2131    0.1671 H   0  0  0  0  0  0  0  0  0  0  0  0
    1.7713   -3.0225   -0.8612 C   0  0  0  0  0  0  0  0  0  0  0  0
    0.7168   -3.7873   -1.3490 C   0  0  0  0  0  0  0  0  0  0  0  0
   -0.2994   -3.1863   -2.0574 C   0  0  0  0  0  0  0  0  0  0  0  0
   -0.2878   -1.8127   -2.2874 C   0  0  0  0  0  0  0  0  0  0  0  0
   -1.3023   -1.2342   -2.9840 O   0  0  0  0  0  0  0  0  0  0  0  0
   -2.3476   -2.0940   -3.4423 C   0  0  0  0  0  0  0  0  0  0  0  0
   -3.3909   -1.2698   -4.1993 C   0  0  0  0  0  0  0  0  0  0  0  0
   -4.5100   -2.1905   -4.6900 C   0  0  0  0  0  0  0  0  0  0  0  0
   -5.4845   -1.4207   -5.3971 O   0  0  0  0  0  0  0  0  0  0  0  0
   -6.5527   -2.0918   -5.9025 C   0  0  0  0  0  0  0  0  0  0  0  0
   -6.6645   -3.4623   -5.7171 C   0  0  0  0  0  0  0  0  0  0  0  0
   -7.7511   -4.1393   -6.2322 C   0  0  0  0  0  0  0  0  0  0  0  0
   -8.7311   -3.4566   -6.9343 C   0  0  0  0  0  0  0  0  0  0  0  0
   -8.6219   -2.0910   -7.1205 C   0  0  0  0  0  0  0  0  0  0  0  0
   -7.5364   -1.4082   -6.5997 C   0  0  0  0  0  0  0  0  0  0  0  0
   -9.8092   -1.5860   -7.9123 C   0  0  0  0  0  0  0  0  0  0  0  0
  -10.4255   -2.8430   -8.5621 C   0  0  0  0  0  0  0  0  0  0  0  0
   -9.9995   -3.9621   -7.5883 C   0  0  1  0  0  0  0  0  0  0  0  0
  -10.7730   -4.1251   -6.8378 H   0  0  0  0  0  0  0  0  0  0  0  0
   -9.7217   -5.2562   -8.3557 C   0  0  0  0  0  0  0  0  0  0  0  0
  -11.0183   -5.8171   -8.8806 C   0  0  0  0  0  0  0  0  0  0  0  0
  -12.0767   -5.2954   -8.5740 O   0  0  0  0  0  0  0  0  0  0  0  0
  -11.0087   -6.7926   -9.6119 O   0  5  0  0  0  0  0  0  0  0  0  0
    1.0979    3.0251   -1.2485 H   0  0  0  0  0  0  0  0  0  0  0  0
   -0.4446    2.8890   -2.1262 H   0  0  0  0  0  0  0  0  0  0  0  0
   -0.4424    3.1908   -0.3720 H   0  0  0  0  0  0  0  0  0  0  0  0
    0.5638    0.9570    0.0110 H   0  0  0  0  0  0  0  0  0  0  0  0
   -0.9788    0.8209   -0.8667 H   0  0  0  0  0  0  0  0  0  0  0  0
    0.2556    0.6599   -3.0112 H   0  0  0  0  0  0  0  0  0  0  0  0
    1.7982    0.7960   -2.1336 H   0  0  0  0  0  0  0  0  0  0  0  0
    3.3497   -0.1076   -0.4476 H   0  0  0  0  0  0  0  0  0  0  0  0
    4.5627   -2.1443    0.6316 H   0  0  0  0  0  0  0  0  0  0  0  0
    0.6953   -4.8525   -1.1723 H   0  0  0  0  0  0  0  0  0  0  0  0
   -1.1156   -3.7849   -2.4341 H   0  0  0  0  0  0  0  0  0  0  0  0
   -1.9305   -2.8508   -4.1067 H   0  0  0  0  0  0  0  0  0  0  0  0
   -2.8188   -2.5803   -2.5881 H   0  0  0  0  0  0  0  0  0  0  0  0
   -3.8080   -0.5131   -3.5349 H   0  0  0  0  0  0  0  0  0  0  0  0
   -2.9197   -0.7835   -5.0535 H   0  0  0  0  0  0  0  0  0  0  0  0
   -4.0929   -2.9472   -5.3544 H   0  0  0  0  0  0  0  0  0  0  0  0
   -4.9812   -2.6768   -3.8359 H   0  0  0  0  0  0  0  0  0  0  0  0
   -5.9023   -3.9983   -5.1710 H   0  0  0  0  0  0  0  0  0  0  0  0
   -7.8378   -5.2061   -6.0876 H   0  0  0  0  0  0  0  0  0  0  0  0
   -7.4534   -0.3407   -6.7408 H   0  0  0  0  0  0  0  0  0  0  0  0
  -10.5315   -1.1103   -7.2489 H   0  0  0  0  0  0  0  0  0  0  0  0
   -9.4812   -0.8854   -8.6803 H   0  0  0  0  0  0  0  0  0  0  0  0
  -11.5116   -2.7623   -8.6083 H   0  0  0  0  0  0  0  0  0  0  0  0
  -10.0059   -3.0118   -9.5538 H   0  0  0  0  0  0  0  0  0  0  0  0
   -9.0520   -5.0474   -9.1899 H   0  0  0  0  0  0  0  0  0  0  0  0
   -9.2559   -5.9814   -7.6885 H   0  0  0  0  0  0  0  0  0  0  0  0
  1  2  1  0  0  0  0
  1 33  1  0  0  0  0
  1 34  1  0  0  0  0
  1 35  1  0  0  0  0
  2  3  1  0  0  0  0
  2 36  1  0  0  0  0
  2 37  1  0  0  0  0
  3  4  1  0  0  0  0
  3 38  1  0  0  0  0
  3 39  1  0  0  0  0
  4 13  2  0  0  0  0
  4  5  1  0  0  0  0
  5 10  2  0  0  0  0
  5  6  1  0  0  0  0
  6  7  2  0  0  0  0
  6 40  1  0  0  0  0
  7  8  1  0  0  0  0
  7 41  1  0  0  0  0
  8  9  1  0  0  0  0
  8 10  1  0  0  0  0
 10 11  1  0  0  0  0
 11 12  2  0  0  0  0
 11 42  1  0  0  0  0
 12 13  1  0  0  0  0
 12 43  1  0  0  0  0
 13 14  1  0  0  0  0
 14 15  1  0  0  0  0
 15 16  1  0  0  0  0
 15 44  1  0  0  0  0
 15 45  1  0  0  0  0
 16 17  1  0  0  0  0
 16 46  1  0  0  0  0
 16 47  1  0  0  0  0
 17 18  1  0  0  0  0
 17 48  1  0  0  0  0
 17 49  1  0  0  0  0
 18 19  1  0  0  0  0
 19 24  2  0  0  0  0
 19 20  1  0  0  0  0
 20 21  2  0  0  0  0
 20 50  1  0  0  0  0
 21 22  1  0  0  0  0
 21 51  1  0  0  0  0
 22 27  1  0  0  0  0
 22 23  2  0  0  0  0
 23 24  1  0  0  0  0
 23 25  1  0  0  0  0
 24 52  1  0  0  0  0
 25 26  1  0  0  0  0
 25 53  1  0  0  0  0
 25 54  1  0  0  0  0
 26 27  1  0  0  0  0
 26 55  1  0  0  0  0
 26 56  1  0  0  0  0
 27 28  1  1  0  0  0
 27 29  1  0  0  0  0
 29 30  1  0  0  0  0
 29 57  1  0  0  0  0
 29 58  1  0  0  0  0
 30 31  2  0  0  0  0
 30 32  1  0  0  0  0
M  CHG  1  32  -1
M  END
$$$$
