CHEMBL87307
 OpenBabel05272217113D

 55 57  0  0  1  0  0  0  0  0999 V2000
   -0.0187    1.5258    0.0104 C   0  0  0  0  0  0  0  0  0  0  0  0
    0.0021   -0.0041    0.0020 C   0  0  0  0  0  0  0  0  0  0  0  0
    0.6709   -0.4649   -1.1737 O   0  0  0  0  0  0  0  0  0  0  0  0
    0.7457   -1.8880   -1.2798 C   0  0  1  0  0  0  0  0  0  0  0  0
   -0.1179   -2.3349   -0.7873 H   0  0  0  0  0  0  0  0  0  0  0  0
    0.7554   -2.2896   -2.7561 C   0  0  0  0  0  0  0  0  0  0  0  0
   -0.5593   -1.9112   -3.3882 C   0  0  0  0  0  0  0  0  0  0  0  0
   -1.6109   -2.8089   -3.3838 C   0  0  0  0  0  0  0  0  0  0  0  0
   -2.8169   -2.4646   -3.9630 C   0  0  0  0  0  0  0  0  0  0  0  0
   -2.9725   -1.2168   -4.5490 C   0  0  0  0  0  0  0  0  0  0  0  0
   -1.9159   -0.3178   -4.5517 C   0  0  0  0  0  0  0  0  0  0  0  0
   -0.7136   -0.6649   -3.9666 C   0  0  0  0  0  0  0  0  0  0  0  0
   -4.1577   -0.8760   -5.1198 O   0  0  0  0  0  0  0  0  0  0  0  0
   -4.2460    0.4250   -5.7042 C   0  0  0  0  0  0  0  0  0  0  0  0
   -5.6230    0.6232   -6.2834 C   0  0  0  0  0  0  0  0  0  0  0  0
   -6.2808    1.7688   -6.0686 C   0  0  0  0  0  0  0  0  0  0  0  0
   -7.6359    1.9638   -6.6385 C   0  0  0  0  0  0  0  0  0  0  0  0
   -7.8524    2.9404   -7.6094 C   0  0  0  0  0  0  0  0  0  0  0  0
   -9.1152    3.1178   -8.1363 C   0  0  0  0  0  0  0  0  0  0  0  0
  -10.1662    2.3283   -7.7022 C   0  0  0  0  0  0  0  0  0  0  0  0
   -9.9567    1.3575   -6.7380 C   0  0  0  0  0  0  0  0  0  0  0  0
   -8.6964    1.1674   -6.2093 C   0  0  0  0  0  0  0  0  0  0  0  0
  -11.8943    2.5775   -8.4284 Br  0  0  0  0  0  0  0  0  0  0  0  0
   -5.6546    2.8431   -5.2607 C   0  0  0  0  0  0  0  0  0  0  0  0
   -6.2112    3.2130   -4.0373 C   0  0  0  0  0  0  0  0  0  0  0  0
   -5.6245    4.2132   -3.2895 C   0  0  0  0  0  0  0  0  0  0  0  0
   -4.4856    4.8494   -3.7524 C   0  0  0  0  0  0  0  0  0  0  0  0
   -3.9291    4.4863   -4.9667 C   0  0  0  0  0  0  0  0  0  0  0  0
   -4.5040    3.4827   -5.7193 C   0  0  0  0  0  0  0  0  0  0  0  0
   -3.6874    6.2198   -2.7225 Br  0  0  0  0  0  0  0  0  0  0  0  0
    2.0091   -2.3753   -0.6184 C   0  0  0  0  0  0  0  0  0  0  0  0
    2.7745   -1.5779   -0.1038 O   0  0  0  0  0  0  0  0  0  0  0  0
    2.2658   -3.5670   -0.5978 O   0  5  0  0  0  0  0  0  0  0  0  0
    1.0039    1.9031    0.0027 H   0  0  0  0  0  0  0  0  0  0  0  0
   -0.5459    1.8868   -0.8726 H   0  0  0  0  0  0  0  0  0  0  0  0
   -0.5289    1.8773    0.9072 H   0  0  0  0  0  0  0  0  0  0  0  0
    0.5293   -0.3651    0.8851 H   0  0  0  0  0  0  0  0  0  0  0  0
   -1.0205   -0.3814    0.0098 H   0  0  0  0  0  0  0  0  0  0  0  0
    1.5669   -1.7723   -3.2680 H   0  0  0  0  0  0  0  0  0  0  0  0
    0.9017   -3.3665   -2.8387 H   0  0  0  0  0  0  0  0  0  0  0  0
   -1.4892   -3.7802   -2.9274 H   0  0  0  0  0  0  0  0  0  0  0  0
   -3.6378   -3.1664   -3.9599 H   0  0  0  0  0  0  0  0  0  0  0  0
   -2.0346    0.6542   -5.0074 H   0  0  0  0  0  0  0  0  0  0  0  0
    0.1078    0.0363   -3.9646 H   0  0  0  0  0  0  0  0  0  0  0  0
   -4.0611    1.1800   -4.9400 H   0  0  0  0  0  0  0  0  0  0  0  0
   -3.5021    0.5192   -6.4954 H   0  0  0  0  0  0  0  0  0  0  0  0
   -6.0791   -0.1592   -6.8718 H   0  0  0  0  0  0  0  0  0  0  0  0
   -7.0333    3.5573   -7.9482 H   0  0  0  0  0  0  0  0  0  0  0  0
   -9.2841    3.8741   -8.8886 H   0  0  0  0  0  0  0  0  0  0  0  0
  -10.7801    0.7447   -6.4022 H   0  0  0  0  0  0  0  0  0  0  0  0
   -8.5329    0.4061   -5.4609 H   0  0  0  0  0  0  0  0  0  0  0  0
   -7.1002    2.7177   -3.6756 H   0  0  0  0  0  0  0  0  0  0  0  0
   -6.0549    4.5006   -2.3416 H   0  0  0  0  0  0  0  0  0  0  0  0
   -3.0408    4.9862   -5.3237 H   0  0  0  0  0  0  0  0  0  0  0  0
   -4.0661    3.1965   -6.6641 H   0  0  0  0  0  0  0  0  0  0  0  0
  1  2  1  0  0  0  0
  1 34  1  0  0  0  0
  1 35  1  0  0  0  0
  1 36  1  0  0  0  0
  2  3  1  0  0  0  0
  2 37  1  0  0  0  0
  2 38  1  0  0  0  0
  3  4  1  0  0  0  0
  4  5  1  1  0  0  0
  4  6  1  0  0  0  0
  4 31  1  0  0  0  0
  6  7  1  0  0  0  0
  6 39  1  0  0  0  0
  6 40  1  0  0  0  0
  7 12  2  0  0  0  0
  7  8  1  0  0  0  0
  8  9  2  0  0  0  0
  8 41  1  0  0  0  0
  9 10  1  0  0  0  0
  9 42  1  0  0  0  0
 10 11  2  0  0  0  0
 10 13  1  0  0  0  0
 11 12  1  0  0  0  0
 11 43  1  0  0  0  0
 12 44  1  0  0  0  0
 13 14  1  0  0  0  0
 14 15  1  0  0  0  0
 14 45  1  0  0  0  0
 14 46  1  0  0  0  0
 15 16  2  0  0  0  0
 15 47  1  0  0  0  0
 16 17  1  0  0  0  0
 16 24  1  0  0  0  0
 17 22  2  0  0  0  0
 17 18  1  0  0  0  0
 18 19  2  0  0  0  0
 18 48  1  0  0  0  0
 19 20  1  0  0  0  0
 19 49  1  0  0  0  0
 20 21  2  0  0  0  0
 20 23  1  0  0  0  0
 21 22  1  0  0  0  0
 21 50  1  0  0  0  0
 22 51  1  0  0  0  0
 24 29  2  0  0  0  0
 24 25  1  0  0  0  0
 25 26  2  0  0  0  0
 25 52  1  0  0  0  0
 26 27  1  0  0  0  0
 26 53  1  0  0  0  0
 27 28  2  0  0  0  0
 27 30  1  0  0  0  0
 28 29  1  0  0  0  0
 28 54  1  0  0  0  0
 29 55  1  0  0  0  0
 31 32  2  0  0  0  0
 31 33  1  0  0  0  0
M  CHG  1  33  -1
M  END
$$$$
