CHEMBL221399
 OpenBabel05272217113D

 49 51  0  0  0  0  0  0  0  0999 V2000
   -0.0184    1.5028    0.0103 C   0  0  0  0  0  0  0  0  0  0  0  0
    0.0021   -0.0041    0.0020 C   0  0  0  0  0  0  0  0  0  0  0  0
    0.0057   -0.6878   -1.1980 C   0  0  0  0  0  0  0  0  0  0  0  0
    0.0246   -2.0766   -1.2053 C   0  0  0  0  0  0  0  0  0  0  0  0
    0.0397   -2.7765   -0.0051 C   0  0  0  0  0  0  0  0  0  0  0  0
    0.0360   -2.0909    1.1933 C   0  0  0  0  0  0  0  0  0  0  0  0
    0.0229   -0.7036    1.1994 C   0  0  0  0  0  0  0  0  0  0  0  0
    0.0254   -0.0293    2.3804 O   0  0  0  0  0  0  0  0  0  0  0  0
    0.0474   -0.8131    3.5751 C   0  0  0  0  0  0  0  0  0  0  0  0
    0.0468    0.0992    4.7746 C   0  0  0  0  0  0  0  0  0  0  0  0
    0.0293    1.3085    4.6207 O   0  0  0  0  0  0  0  0  0  0  0  0
    0.0640   -0.3721    5.8989 O   0  5  0  0  0  0  0  0  0  0  0  0
    0.0286   -2.9502   -2.7355 S   0  0  0  0  0  0  0  0  0  0  0  0
    0.0549   -4.6962   -2.2439 C   0  0  0  0  0  0  0  0  0  0  0  0
    0.0604   -5.5647   -3.4755 C   0  0  0  0  0  0  0  0  0  0  0  0
    1.1201   -6.3364   -3.7454 C   0  0  0  0  0  0  0  0  0  0  0  0
    1.1255   -7.1910   -4.9572 C   0  0  0  0  0  0  0  0  0  0  0  0
    1.1392   -8.5795   -4.8338 C   0  0  0  0  0  0  0  0  0  0  0  0
    1.1443   -9.3701   -5.9646 C   0  0  0  0  0  0  0  0  0  0  0  0
    1.1362   -8.7869   -7.2199 C   0  0  0  0  0  0  0  0  0  0  0  0
    1.1230   -7.4086   -7.3481 C   0  0  0  0  0  0  0  0  0  0  0  0
    1.1111   -6.6088   -6.2237 C   0  0  0  0  0  0  0  0  0  0  0  0
    1.1438   -9.8767   -8.7652 Br  0  0  0  0  0  0  0  0  0  0  0  0
    2.2887   -6.3367   -2.8326 C   0  0  0  0  0  0  0  0  0  0  0  0
    3.5205   -5.8552   -3.2732 C   0  0  0  0  0  0  0  0  0  0  0  0
    4.6048   -5.8578   -2.4198 C   0  0  0  0  0  0  0  0  0  0  0  0
    4.4711   -6.3378   -1.1284 C   0  0  0  0  0  0  0  0  0  0  0  0
    3.2503   -6.8175   -0.6860 C   0  0  0  0  0  0  0  0  0  0  0  0
    2.1580   -6.8132   -1.5291 C   0  0  0  0  0  0  0  0  0  0  0  0
    5.9615   -6.3388    0.0354 Br  0  0  0  0  0  0  0  0  0  0  0  0
    1.0042    1.8801    0.0026 H   0  0  0  0  0  0  0  0  0  0  0  0
   -0.5455    1.8639   -0.8728 H   0  0  0  0  0  0  0  0  0  0  0  0
   -0.5286    1.8543    0.9071 H   0  0  0  0  0  0  0  0  0  0  0  0
   -0.0064   -0.1428   -2.1303 H   0  0  0  0  0  0  0  0  0  0  0  0
    0.0540   -3.8564   -0.0097 H   0  0  0  0  0  0  0  0  0  0  0  0
    0.0478   -2.6347    2.1263 H   0  0  0  0  0  0  0  0  0  0  0  0
   -0.8339   -1.4538    3.6055 H   0  0  0  0  0  0  0  0  0  0  0  0
    0.9458   -1.4302    3.5883 H   0  0  0  0  0  0  0  0  0  0  0  0
    0.9506   -4.8945   -1.6554 H   0  0  0  0  0  0  0  0  0  0  0  0
   -0.8291   -4.9187   -1.6464 H   0  0  0  0  0  0  0  0  0  0  0  0
   -0.7908   -5.5645   -4.1402 H   0  0  0  0  0  0  0  0  0  0  0  0
    1.1463   -9.0355   -3.8548 H   0  0  0  0  0  0  0  0  0  0  0  0
    1.1549  -10.4459   -5.8701 H   0  0  0  0  0  0  0  0  0  0  0  0
    1.1175   -6.9585   -8.3298 H   0  0  0  0  0  0  0  0  0  0  0  0
    1.0956   -5.5337   -6.3247 H   0  0  0  0  0  0  0  0  0  0  0  0
    3.6260   -5.4811   -4.2808 H   0  0  0  0  0  0  0  0  0  0  0  0
    5.5595   -5.4849   -2.7602 H   0  0  0  0  0  0  0  0  0  0  0  0
    3.1515   -7.1915    0.3224 H   0  0  0  0  0  0  0  0  0  0  0  0
    1.2047   -7.1828   -1.1813 H   0  0  0  0  0  0  0  0  0  0  0  0
  1  2  1  0  0  0  0
  1 31  1  0  0  0  0
  1 32  1  0  0  0  0
  1 33  1  0  0  0  0
  2  7  2  0  0  0  0
  2  3  1  0  0  0  0
  3  4  2  0  0  0  0
  3 34  1  0  0  0  0
  4  5  1  0  0  0  0
  4 13  1  0  0  0  0
  5  6  2  0  0  0  0
  5 35  1  0  0  0  0
  6  7  1  0  0  0  0
  6 36  1  0  0  0  0
  7  8  1  0  0  0  0
  8  9  1  0  0  0  0
  9 10  1  0  0  0  0
  9 37  1  0  0  0  0
  9 38  1  0  0  0  0
 10 11  2  0  0  0  0
 10 12  1  0  0  0  0
 13 14  1  0  0  0  0
 14 15  1  0  0  0  0
 14 39  1  0  0  0  0
 14 40  1  0  0  0  0
 15 16  2  0  0  0  0
 15 41  1  0  0  0  0
 16 17  1  0  0  0  0
 16 24  1  0  0  0  0
 17 22  2  0  0  0  0
 17 18  1  0  0  0  0
 18 19  2  0  0  0  0
 18 42  1  0  0  0  0
 19 20  1  0  0  0  0
 19 43  1  0  0  0  0
 20 21  2  0  0  0  0
 20 23  1  0  0  0  0
 21 22  1  0  0  0  0
 21 44  1  0  0  0  0
 22 45  1  0  0  0  0
 24 29  2  0  0  0  0
 24 25  1  0  0  0  0
 25 26  2  0  0  0  0
 25 46  1  0  0  0  0
 26 27  1  0  0  0  0
 26 47  1  0  0  0  0
 27 28  2  0  0  0  0
 27 30  1  0  0  0  0
 28 29  1  0  0  0  0
 28 48  1  0  0  0  0
 29 49  1  0  0  0  0
M  CHG  1  12  -1
M  END
$$$$
