CHEMBL400300
 OpenBabel05272217113D

 68 72  0  0  0  0  0  0  0  0999 V2000
   -0.0360    1.4457    0.0362 C   0  0  0  0  0  0  0  0  0  0  0  0
    1.1459    2.1565    0.0337 C   0  0  0  0  0  0  0  0  0  0  0  0
    2.3583    1.4895    0.0193 C   0  0  0  0  0  0  0  0  0  0  0  0
    2.3947    0.1062    0.0067 C   0  0  0  0  0  0  0  0  0  0  0  0
    1.2209   -0.6179    0.0090 C   0  0  0  0  0  0  0  0  0  0  0  0
   -0.0072    0.0486    0.0240 C   0  0  0  0  0  0  0  0  0  0  0  0
   -1.2301   -0.6963    0.0269 C   0  0  0  0  0  0  0  0  0  0  0  0
   -2.2328   -1.3071    0.0293 C   0  0  0  0  0  0  0  0  0  0  0  0
   -3.4557   -2.0520    0.0323 C   0  0  0  0  0  0  0  0  0  0  0  0
   -4.6757   -1.3757    0.0415 C   0  0  0  0  0  0  0  0  0  0  0  0
   -5.8596   -2.1102    0.0438 C   0  0  0  0  0  0  0  0  0  0  0  0
   -5.7786   -3.5024    0.0367 C   0  0  0  0  0  0  0  0  0  0  0  0
   -4.5259   -4.1108    0.0277 C   0  0  0  0  0  0  0  0  0  0  0  0
   -3.4165   -3.3809    0.0206 N   0  0  0  0  0  0  0  0  0  0  0  0
   -4.4331   -5.5397    0.0204 C   0  0  0  0  0  0  0  0  0  0  0  0
   -4.3570   -6.7113    0.0144 C   0  0  0  0  0  0  0  0  0  0  0  0
   -4.2616   -8.1801    0.0069 C   0  0  0  0  0  0  0  0  0  0  0  0
   -2.8478   -8.5790   -0.0020 N   0  0  0  0  0  0  0  0  0  0  0  0
   -2.1976   -8.1864   -1.2607 C   0  0  0  0  0  0  0  0  0  0  0  0
   -0.7156   -8.5665   -1.2034 C   0  0  0  0  0  0  0  0  0  0  0  0
   -0.5978   -9.9686   -0.9474 O   0  0  0  0  0  0  0  0  0  0  0  0
   -1.2196  -10.3857    0.2711 C   0  0  0  0  0  0  0  0  0  0  0  0
   -2.7066  -10.0240    0.2288 C   0  0  0  0  0  0  0  0  0  0  0  0
   -7.4235   -1.2986    0.0559 S   0  0  0  0  0  0  0  0  0  0  0  0
   -7.7436   -0.9646   -1.6442 C   0  0  0  0  0  0  0  0  0  0  0  0
   -6.8800   -1.4459   -2.6189 C   0  0  0  0  0  0  0  0  0  0  0  0
   -7.1310   -1.1841   -3.9510 C   0  0  0  0  0  0  0  0  0  0  0  0
   -8.2444   -0.4416   -4.3128 C   0  0  0  0  0  0  0  0  0  0  0  0
   -9.1103    0.0418   -3.3395 C   0  0  0  0  0  0  0  0  0  0  0  0
   -8.8642   -0.2240   -2.0069 C   0  0  0  0  0  0  0  0  0  0  0  0
   -9.9464    0.3997   -1.1518 C   0  0  0  0  0  0  0  0  0  0  0  0
  -10.6385    1.4326   -2.0663 C   0  0  0  0  0  0  0  0  0  0  0  0
  -10.3741    0.8644   -3.4728 C   0  0  0  0  0  0  0  0  0  0  0  0
   -8.4899   -0.1850   -5.6255 O   0  0  0  0  0  0  0  0  0  0  0  0
   -7.5598   -0.7110   -6.5744 C   0  0  0  0  0  0  0  0  0  0  0  0
   -7.9918   -0.3286   -7.9665 C   0  0  0  0  0  0  0  0  0  0  0  0
   -9.0026    0.3332   -8.1309 O   0  0  0  0  0  0  0  0  0  0  0  0
   -7.3307   -0.6808   -8.9284 O   0  5  0  0  0  0  0  0  0  0  0  0
    3.6453    2.2735    0.0167 C   0  0  0  0  0  0  0  0  0  0  0  0
    4.0531    2.5048    1.3348 F   0  0  0  0  0  0  0  0  0  0  0  0
    4.6330    1.5462   -0.6562 F   0  0  0  0  0  0  0  0  0  0  0  0
    3.4446    3.4972   -0.6309 F   0  0  0  0  0  0  0  0  0  0  0  0
   -0.9815    1.9675    0.0520 H   0  0  0  0  0  0  0  0  0  0  0  0
    1.1252    3.2362    0.0428 H   0  0  0  0  0  0  0  0  0  0  0  0
    3.3446   -0.4075   -0.0052 H   0  0  0  0  0  0  0  0  0  0  0  0
    1.2509   -1.6975   -0.0011 H   0  0  0  0  0  0  0  0  0  0  0  0
   -4.7022   -0.2960    0.0471 H   0  0  0  0  0  0  0  0  0  0  0  0
   -6.6770   -4.1018    0.0386 H   0  0  0  0  0  0  0  0  0  0  0  0
   -4.7465   -8.5803    0.8974 H   0  0  0  0  0  0  0  0  0  0  0  0
   -4.7552   -8.5718   -0.8826 H   0  0  0  0  0  0  0  0  0  0  0  0
   -2.6741   -8.7039   -2.0933 H   0  0  0  0  0  0  0  0  0  0  0  0
   -2.2920   -7.1093   -1.3987 H   0  0  0  0  0  0  0  0  0  0  0  0
   -0.2419   -8.3294   -2.1560 H   0  0  0  0  0  0  0  0  0  0  0  0
   -0.2274   -8.0084   -0.4045 H   0  0  0  0  0  0  0  0  0  0  0  0
   -1.1104  -11.4642    0.3849 H   0  0  0  0  0  0  0  0  0  0  0  0
   -0.7460   -9.8804    1.1129 H   0  0  0  0  0  0  0  0  0  0  0  0
   -3.1727  -10.2883    1.1780 H   0  0  0  0  0  0  0  0  0  0  0  0
   -3.1913  -10.5708   -0.5801 H   0  0  0  0  0  0  0  0  0  0  0  0
   -6.0129   -2.0239   -2.3354 H   0  0  0  0  0  0  0  0  0  0  0  0
   -6.4602   -1.5573   -4.7107 H   0  0  0  0  0  0  0  0  0  0  0  0
  -10.6597   -0.3596   -0.8313 H   0  0  0  0  0  0  0  0  0  0  0  0
   -9.5062    0.8954   -0.2866 H   0  0  0  0  0  0  0  0  0  0  0  0
  -11.7071    1.4813   -1.8567 H   0  0  0  0  0  0  0  0  0  0  0  0
  -10.1767    2.4144   -1.9609 H   0  0  0  0  0  0  0  0  0  0  0  0
  -10.2276    1.6686   -4.1938 H   0  0  0  0  0  0  0  0  0  0  0  0
  -11.2076    0.2307   -3.7758 H   0  0  0  0  0  0  0  0  0  0  0  0
   -6.5687   -0.3027   -6.3765 H   0  0  0  0  0  0  0  0  0  0  0  0
   -7.5288   -1.7972   -6.4891 H   0  0  0  0  0  0  0  0  0  0  0  0
  1  6  2  0  0  0  0
  1  2  1  0  0  0  0
  1 43  1  0  0  0  0
  2  3  2  0  0  0  0
  2 44  1  0  0  0  0
  3  4  1  0  0  0  0
  3 39  1  0  0  0  0
  4  5  2  0  0  0  0
  4 45  1  0  0  0  0
  5  6  1  0  0  0  0
  5 46  1  0  0  0  0
  6  7  1  0  0  0  0
  7  8  3  0  0  0  0
  8  9  1  0  0  0  0
  9 14  2  0  0  0  0
  9 10  1  0  0  0  0
 10 11  2  0  0  0  0
 10 47  1  0  0  0  0
 11 12  1  0  0  0  0
 11 24  1  0  0  0  0
 12 13  2  0  0  0  0
 12 48  1  0  0  0  0
 13 14  1  0  0  0  0
 13 15  1  0  0  0  0
 15 16  3  0  0  0  0
 16 17  1  0  0  0  0
 17 18  1  0  0  0  0
 17 49  1  0  0  0  0
 17 50  1  0  0  0  0
 18 23  1  0  0  0  0
 18 19  1  0  0  0  0
 19 20  1  0  0  0  0
 19 51  1  0  0  0  0
 19 52  1  0  0  0  0
 20 21  1  0  0  0  0
 20 53  1  0  0  0  0
 20 54  1  0  0  0  0
 21 22  1  0  0  0  0
 22 23  1  0  0  0  0
 22 55  1  0  0  0  0
 22 56  1  0  0  0  0
 23 57  1  0  0  0  0
 23 58  1  0  0  0  0
 24 25  1  0  0  0  0
 25 30  2  0  0  0  0
 25 26  1  0  0  0  0
 26 27  2  0  0  0  0
 26 59  1  0  0  0  0
 27 28  1  0  0  0  0
 27 60  1  0  0  0  0
 28 29  2  0  0  0  0
 28 34  1  0  0  0  0
 29 33  1  0  0  0  0
 29 30  1  0  0  0  0
 30 31  1  0  0  0  0
 31 32  1  0  0  0  0
 31 61  1  0  0  0  0
 31 62  1  0  0  0  0
 32 33  1  0  0  0  0
 32 63  1  0  0  0  0
 32 64  1  0  0  0  0
 33 65  1  0  0  0  0
 33 66  1  0  0  0  0
 34 35  1  0  0  0  0
 35 36  1  0  0  0  0
 35 67  1  0  0  0  0
 35 68  1  0  0  0  0
 36 37  2  0  0  0  0
 36 38  1  0  0  0  0
 39 40  1  0  0  0  0
 39 41  1  0  0  0  0
 39 42  1  0  0  0  0
M  CHG  1  38  -1
M  END
$$$$
