CHEMBL231527
 OpenBabel05272217113D

 67 69  0  0  1  0  0  0  0  0999 V2000
   -2.4361   -2.7061    1.1581 C   0  0  0  0  0  0  0  0  0  0  0  0
   -1.6047   -1.9058    0.1536 C   0  0  0  0  0  0  0  0  0  0  0  0
   -0.8346   -2.8683   -0.7527 C   0  0  0  0  0  0  0  0  0  0  0  0
   -0.0158   -2.0800   -1.7422 C   0  0  0  0  0  0  0  0  0  0  0  0
   -0.0452   -0.8675   -1.7243 O   0  0  0  0  0  0  0  0  0  0  0  0
    0.8179   -2.7797   -2.7282 C   0  0  0  0  0  0  0  0  0  0  0  0
    0.8491   -4.1795   -2.7548 C   0  0  0  0  0  0  0  0  0  0  0  0
    1.6288   -4.8280   -3.6777 C   0  0  0  0  0  0  0  0  0  0  0  0
    2.3880   -4.0981   -4.5860 C   0  0  0  0  0  0  0  0  0  0  0  0
    2.3608   -2.7077   -4.5636 C   0  0  0  0  0  0  0  0  0  0  0  0
    1.5797   -2.0496   -3.6488 C   0  0  0  0  0  0  0  0  0  0  0  0
    3.1580   -4.7445   -5.4969 O   0  0  0  0  0  0  0  0  0  0  0  0
    3.2329   -6.1675   -5.3899 C   0  0  1  0  0  0  0  0  0  0  0  0
    2.0427   -6.7969   -6.1166 C   0  0  0  0  0  0  0  0  0  0  0  0
    2.1364   -6.5175   -7.5149 O   0  0  0  0  0  0  0  0  0  0  0  0
    1.1497   -7.0089   -8.3097 C   0  0  0  0  0  0  0  0  0  0  0  0
    0.1096   -7.7401   -7.7545 C   0  0  0  0  0  0  0  0  0  0  0  0
   -0.8925   -8.2381   -8.5646 C   0  0  0  0  0  0  0  0  0  0  0  0
   -0.8592   -8.0088   -9.9277 C   0  0  0  0  0  0  0  0  0  0  0  0
    0.1766   -7.2808  -10.4835 C   0  0  0  0  0  0  0  0  0  0  0  0
    1.1778   -6.7754   -9.6770 C   0  0  0  0  0  0  0  0  0  0  0  0
   -1.9534   -8.5537  -10.8091 C   0  0  0  0  0  0  0  0  0  0  0  0
   -2.9822   -7.6113  -10.9118 F   0  0  0  0  0  0  0  0  0  0  0  0
   -1.4373   -8.8213  -12.0816 F   0  0  0  0  0  0  0  0  0  0  0  0
   -2.4563   -9.7344  -10.2521 F   0  0  0  0  0  0  0  0  0  0  0  0
    4.5357   -6.6588   -6.0242 C   0  0  0  0  0  0  0  0  0  0  0  0
    5.9462   -6.0310   -5.0720 S   0  0  0  0  0  0  0  0  0  0  0  0
    7.3517   -6.6750   -5.9174 C   0  0  0  0  0  0  0  0  0  0  0  0
    7.1816   -7.4630   -7.0490 C   0  0  0  0  0  0  0  0  0  0  0  0
    8.2836   -7.9670   -7.7106 C   0  0  0  0  0  0  0  0  0  0  0  0
    9.5604   -7.6874   -7.2457 C   0  0  0  0  0  0  0  0  0  0  0  0
    9.7314   -6.9009   -6.1162 C   0  0  0  0  0  0  0  0  0  0  0  0
    8.6307   -6.3905   -5.4563 C   0  0  0  0  0  0  0  0  0  0  0  0
   11.1190   -6.5983   -5.6120 C   0  0  0  0  0  0  0  0  0  0  0  0
   10.6452   -8.1852   -7.8977 O   0  0  0  0  0  0  0  0  0  0  0  0
   10.3957   -8.9877   -9.0534 C   0  0  0  0  0  0  0  0  0  0  0  0
   11.7063   -9.4469   -9.6386 C   0  0  0  0  0  0  0  0  0  0  0  0
   12.7567   -9.1175   -9.1146 O   0  0  0  0  0  0  0  0  0  0  0  0
   11.7162  -10.1479  -10.6361 O   0  5  0  0  0  0  0  0  0  0  0  0
   -3.1403   -3.3422    0.6219 H   0  0  0  0  0  0  0  0  0  0  0  0
   -1.7755   -3.3260    1.7644 H   0  0  0  0  0  0  0  0  0  0  0  0
   -2.9847   -2.0204    1.8038 H   0  0  0  0  0  0  0  0  0  0  0  0
   -2.2653   -1.2859   -0.4527 H   0  0  0  0  0  0  0  0  0  0  0  0
   -0.9004   -1.2697    0.6898 H   0  0  0  0  0  0  0  0  0  0  0  0
   -0.1740   -3.4881   -0.1465 H   0  0  0  0  0  0  0  0  0  0  0  0
   -1.5389   -3.5044   -1.2890 H   0  0  0  0  0  0  0  0  0  0  0  0
    0.2605   -4.7473   -2.0494 H   0  0  0  0  0  0  0  0  0  0  0  0
    1.6536   -5.9075   -3.6991 H   0  0  0  0  0  0  0  0  0  0  0  0
    2.9528   -2.1455   -5.2706 H   0  0  0  0  0  0  0  0  0  0  0  0
    1.5556   -0.9699   -3.6353 H   0  0  0  0  0  0  0  0  0  0  0  0
    3.2099   -6.4546   -4.3386 H   0  0  0  0  0  0  0  0  0  0  0  0
    2.0507   -7.8756   -5.9604 H   0  0  0  0  0  0  0  0  0  0  0  0
    1.1154   -6.3798   -5.7241 H   0  0  0  0  0  0  0  0  0  0  0  0
    0.0835   -7.9200   -6.6899 H   0  0  0  0  0  0  0  0  0  0  0  0
   -1.7024   -8.8074   -8.1328 H   0  0  0  0  0  0  0  0  0  0  0  0
    0.2005   -7.1034  -11.5486 H   0  0  0  0  0  0  0  0  0  0  0  0
    1.9843   -6.2030  -10.1111 H   0  0  0  0  0  0  0  0  0  0  0  0
    4.5522   -7.7487   -6.0225 H   0  0  0  0  0  0  0  0  0  0  0  0
    4.5996   -6.2961   -7.0501 H   0  0  0  0  0  0  0  0  0  0  0  0
    6.1877   -7.6814   -7.4107 H   0  0  0  0  0  0  0  0  0  0  0  0
    8.1516   -8.5796   -8.5903 H   0  0  0  0  0  0  0  0  0  0  0  0
    8.7642   -5.7744   -4.5794 H   0  0  0  0  0  0  0  0  0  0  0  0
   11.4847   -5.6847   -6.0806 H   0  0  0  0  0  0  0  0  0  0  0  0
   11.0918   -6.4662   -4.5304 H   0  0  0  0  0  0  0  0  0  0  0  0
   11.7842   -7.4254   -5.8604 H   0  0  0  0  0  0  0  0  0  0  0  0
    9.7998   -9.8557   -8.7712 H   0  0  0  0  0  0  0  0  0  0  0  0
    9.8532   -8.3998   -9.7938 H   0  0  0  0  0  0  0  0  0  0  0  0
  1  2  1  0  0  0  0
  1 40  1  0  0  0  0
  1 41  1  0  0  0  0
  1 42  1  0  0  0  0
  2  3  1  0  0  0  0
  2 43  1  0  0  0  0
  2 44  1  0  0  0  0
  3  4  1  0  0  0  0
  3 45  1  0  0  0  0
  3 46  1  0  0  0  0
  4  5  2  0  0  0  0
  4  6  1  0  0  0  0
  6 11  2  0  0  0  0
  6  7  1  0  0  0  0
  7  8  2  0  0  0  0
  7 47  1  0  0  0  0
  8  9  1  0  0  0  0
  8 48  1  0  0  0  0
  9 10  2  0  0  0  0
  9 12  1  0  0  0  0
 10 11  1  0  0  0  0
 10 49  1  0  0  0  0
 11 50  1  0  0  0  0
 12 13  1  0  0  0  0
 13 14  1  0  0  0  0
 13 26  1  0  0  0  0
 13 51  1  1  0  0  0
 14 15  1  0  0  0  0
 14 52  1  0  0  0  0
 14 53  1  0  0  0  0
 15 16  1  0  0  0  0
 16 21  2  0  0  0  0
 16 17  1  0  0  0  0
 17 18  2  0  0  0  0
 17 54  1  0  0  0  0
 18 19  1  0  0  0  0
 18 55  1  0  0  0  0
 19 20  2  0  0  0  0
 19 22  1  0  0  0  0
 20 21  1  0  0  0  0
 20 56  1  0  0  0  0
 21 57  1  0  0  0  0
 22 23  1  0  0  0  0
 22 24  1  0  0  0  0
 22 25  1  0  0  0  0
 26 27  1  0  0  0  0
 26 58  1  0  0  0  0
 26 59  1  0  0  0  0
 27 28  1  0  0  0  0
 28 33  2  0  0  0  0
 28 29  1  0  0  0  0
 29 30  2  0  0  0  0
 29 60  1  0  0  0  0
 30 31  1  0  0  0  0
 30 61  1  0  0  0  0
 31 32  2  0  0  0  0
 31 35  1  0  0  0  0
 32 33  1  0  0  0  0
 32 34  1  0  0  0  0
 33 62  1  0  0  0  0
 34 63  1  0  0  0  0
 34 64  1  0  0  0  0
 34 65  1  0  0  0  0
 35 36  1  0  0  0  0
 36 37  1  0  0  0  0
 36 66  1  0  0  0  0
 36 67  1  0  0  0  0
 37 38  2  0  0  0  0
 37 39  1  0  0  0  0
M  CHG  1  39  -1
M  END
$$$$
