CHEMBL1081354
 OpenBabel05272217113D

 60 62  0  0  0  0  0  0  0  0999 V2000
    0.6896    1.5067    0.3990 C   0  0  0  0  0  0  0  0  0  0  0  0
    0.6766   -0.0229    0.3672 C   0  0  0  0  0  0  0  0  0  0  0  0
    1.2004   -0.5095   -0.9855 C   0  0  0  0  0  0  0  0  0  0  0  0
    1.1874   -2.0391   -1.0172 C   0  0  0  0  0  0  0  0  0  0  0  0
    1.6765   -2.4935   -2.2807 O   0  0  0  0  0  0  0  0  0  0  0  0
    1.7302   -3.8373   -2.4742 C   0  0  0  0  0  0  0  0  0  0  0  0
    1.3142   -4.6994   -1.4684 C   0  0  0  0  0  0  0  0  0  0  0  0
    1.3672   -6.0636   -1.6622 C   0  0  0  0  0  0  0  0  0  0  0  0
    1.8389   -6.5769   -2.8692 C   0  0  0  0  0  0  0  0  0  0  0  0
    2.2557   -5.7093   -3.8768 C   0  0  0  0  0  0  0  0  0  0  0  0
    2.1955   -4.3455   -3.6793 C   0  0  0  0  0  0  0  0  0  0  0  0
    2.6403   -3.4064   -4.7707 C   0  0  0  0  0  0  0  0  0  0  0  0
    3.9981   -2.9356   -4.4866 N   0  0  0  0  0  0  0  0  0  0  0  0
    4.6056   -2.0802   -5.3326 C   0  0  0  0  0  0  0  0  0  0  0  0
    4.0267   -1.6992   -6.3315 O   0  0  0  0  0  0  0  0  0  0  0  0
    5.9745   -1.6056   -5.0462 C   0  0  0  0  0  0  0  0  0  0  0  0
    6.6450   -2.0454   -3.9027 C   0  0  0  0  0  0  0  0  0  0  0  0
    7.9228   -1.5990   -3.6414 C   0  0  0  0  0  0  0  0  0  0  0  0
    8.5433   -0.7157   -4.5085 C   0  0  0  0  0  0  0  0  0  0  0  0
    7.8881   -0.2743   -5.6425 C   0  0  0  0  0  0  0  0  0  0  0  0
    6.6081   -0.7181   -5.9215 C   0  0  0  0  0  0  0  0  0  0  0  0
    5.9698   -0.2908   -7.0329 F   0  0  0  0  0  0  0  0  0  0  0  0
    9.9402   -0.2329   -4.2141 C   0  0  0  0  0  0  0  0  0  0  0  0
   10.8670   -1.0993   -4.8037 F   0  0  0  0  0  0  0  0  0  0  0  0
   10.1082    1.0545   -4.7352 F   0  0  0  0  0  0  0  0  0  0  0  0
   10.1421   -0.2058   -2.8300 F   0  0  0  0  0  0  0  0  0  0  0  0
    1.8976   -8.0444   -3.0806 C   0  0  0  0  0  0  0  0  0  0  0  0
    1.3567   -8.6055   -4.2375 C   0  0  0  0  0  0  0  0  0  0  0  0
    1.4096   -9.9713   -4.4375 C   0  0  0  0  0  0  0  0  0  0  0  0
    1.9970  -10.7908   -3.4948 C   0  0  0  0  0  0  0  0  0  0  0  0
    2.5422  -10.2414   -2.3312 C   0  0  0  0  0  0  0  0  0  0  0  0
    2.4968   -8.8615   -2.1284 C   0  0  0  0  0  0  0  0  0  0  0  0
    3.0886   -8.2602   -0.8797 C   0  0  0  0  0  0  0  0  0  0  0  0
    3.1693  -11.1173   -1.3228 C   0  0  0  0  0  0  0  0  0  0  0  0
    4.0542  -11.8941   -1.6531 O   0  0  0  0  0  0  0  0  0  0  0  0
    2.8043  -11.0664   -0.1567 O   0  5  0  0  0  0  0  0  0  0  0  0
    1.7090    1.8644    0.2540 H   0  0  0  0  0  0  0  0  0  0  0  0
    0.0527    1.8920   -0.3972 H   0  0  0  0  0  0  0  0  0  0  0  0
    0.3165    1.8533    1.3627 H   0  0  0  0  0  0  0  0  0  0  0  0
    1.3136   -0.4083    1.1634 H   0  0  0  0  0  0  0  0  0  0  0  0
   -0.3427   -0.3807    0.5122 H   0  0  0  0  0  0  0  0  0  0  0  0
    0.5634   -0.1241   -1.7817 H   0  0  0  0  0  0  0  0  0  0  0  0
    2.2197   -0.1517   -1.1305 H   0  0  0  0  0  0  0  0  0  0  0  0
    1.8244   -2.4244   -0.2211 H   0  0  0  0  0  0  0  0  0  0  0  0
    0.1680   -2.3969   -0.8723 H   0  0  0  0  0  0  0  0  0  0  0  0
    0.9492   -4.3011   -0.5333 H   0  0  0  0  0  0  0  0  0  0  0  0
    1.0438   -6.7337   -0.8794 H   0  0  0  0  0  0  0  0  0  0  0  0
    2.6220   -6.1042   -4.8129 H   0  0  0  0  0  0  0  0  0  0  0  0
    2.6297   -3.9296   -5.7269 H   0  0  0  0  0  0  0  0  0  0  0  0
    1.9621   -2.5542   -4.8154 H   0  0  0  0  0  0  0  0  0  0  0  0
    4.4600   -3.2395   -3.6896 H   0  0  0  0  0  0  0  0  0  0  0  0
    6.1631   -2.7338   -3.2243 H   0  0  0  0  0  0  0  0  0  0  0  0
    8.4414   -1.9390   -2.7572 H   0  0  0  0  0  0  0  0  0  0  0  0
    8.3779    0.4153   -6.3140 H   0  0  0  0  0  0  0  0  0  0  0  0
    0.8950   -7.9703   -4.9789 H   0  0  0  0  0  0  0  0  0  0  0  0
    0.9891  -10.3999   -5.3352 H   0  0  0  0  0  0  0  0  0  0  0  0
    2.0350  -11.8579   -3.6566 H   0  0  0  0  0  0  0  0  0  0  0  0
    2.3178   -8.1833   -0.1129 H   0  0  0  0  0  0  0  0  0  0  0  0
    3.8979   -8.8951   -0.5191 H   0  0  0  0  0  0  0  0  0  0  0  0
    3.4782   -7.2672   -1.1041 H   0  0  0  0  0  0  0  0  0  0  0  0
  1  2  1  0  0  0  0
  1 37  1  0  0  0  0
  1 38  1  0  0  0  0
  1 39  1  0  0  0  0
  2  3  1  0  0  0  0
  2 40  1  0  0  0  0
  2 41  1  0  0  0  0
  3  4  1  0  0  0  0
  3 42  1  0  0  0  0
  3 43  1  0  0  0  0
  4  5  1  0  0  0  0
  4 44  1  0  0  0  0
  4 45  1  0  0  0  0
  5  6  1  0  0  0  0
  6 11  2  0  0  0  0
  6  7  1  0  0  0  0
  7  8  2  0  0  0  0
  7 46  1  0  0  0  0
  8  9  1  0  0  0  0
  8 47  1  0  0  0  0
  9 10  2  0  0  0  0
  9 27  1  0  0  0  0
 10 11  1  0  0  0  0
 10 48  1  0  0  0  0
 11 12  1  0  0  0  0
 12 13  1  0  0  0  0
 12 49  1  0  0  0  0
 12 50  1  0  0  0  0
 13 14  1  0  0  0  0
 13 51  1  0  0  0  0
 14 15  2  0  0  0  0
 14 16  1  0  0  0  0
 16 21  2  0  0  0  0
 16 17  1  0  0  0  0
 17 18  2  0  0  0  0
 17 52  1  0  0  0  0
 18 19  1  0  0  0  0
 18 53  1  0  0  0  0
 19 20  2  0  0  0  0
 19 23  1  0  0  0  0
 20 21  1  0  0  0  0
 20 54  1  0  0  0  0
 21 22  1  0  0  0  0
 23 24  1  0  0  0  0
 23 25  1  0  0  0  0
 23 26  1  0  0  0  0
 27 32  2  0  0  0  0
 27 28  1  0  0  0  0
 28 29  2  0  0  0  0
 28 55  1  0  0  0  0
 29 30  1  0  0  0  0
 29 56  1  0  0  0  0
 30 31  2  0  0  0  0
 30 57  1  0  0  0  0
 31 32  1  0  0  0  0
 31 34  1  0  0  0  0
 32 33  1  0  0  0  0
 33 58  1  0  0  0  0
 33 59  1  0  0  0  0
 33 60  1  0  0  0  0
 34 35  2  0  0  0  0
 34 36  1  0  0  0  0
M  CHG  1  36  -1
M  END
$$$$
