CHEMBL233976
 OpenBabel05272217113D

 46 49  0  0  0  0  0  0  0  0999 V2000
   -0.0184    1.5028    0.0103 C   0  0  0  0  0  0  0  0  0  0  0  0
    0.0021   -0.0041    0.0020 C   0  0  0  0  0  0  0  0  0  0  0  0
    0.0052   -0.6786   -1.1785 C   0  0  0  0  0  0  0  0  0  0  0  0
    0.0311   -2.3682   -0.5929 S   0  0  0  0  0  0  0  0  0  0  0  0
    0.0349   -1.9927    1.1552 C   0  0  0  0  0  0  0  0  0  0  0  0
    0.0223   -0.6673    1.1341 N   0  0  0  0  0  0  0  0  0  0  0  0
    0.0529   -2.9127    2.3127 C   0  0  0  0  0  0  0  0  0  0  0  0
    0.0759   -4.2933    2.1102 C   0  0  0  0  0  0  0  0  0  0  0  0
    0.0925   -5.1463    3.1944 C   0  0  0  0  0  0  0  0  0  0  0  0
    0.0860   -4.6357    4.4803 C   0  0  0  0  0  0  0  0  0  0  0  0
    0.0628   -3.2680    4.6878 C   0  0  0  0  0  0  0  0  0  0  0  0
    0.0527   -2.4041    3.6122 C   0  0  0  0  0  0  0  0  0  0  0  0
    0.1038   -5.5733    5.6599 C   0  0  0  0  0  0  0  0  0  0  0  0
    1.4281   -5.8412    6.0228 F   0  0  0  0  0  0  0  0  0  0  0  0
   -0.5641   -4.9806    6.7369 F   0  0  0  0  0  0  0  0  0  0  0  0
   -0.5362   -6.7686    5.3152 F   0  0  0  0  0  0  0  0  0  0  0  0
   -0.0096   -0.1491   -2.5894 C   0  0  0  0  0  0  0  0  0  0  0  0
    1.3328    0.0369   -3.0424 O   0  0  0  0  0  0  0  0  0  0  0  0
    1.4977    0.5128   -4.3052 C   0  0  0  0  0  0  0  0  0  0  0  0
    0.3891    0.8032   -5.0972 C   0  0  0  0  0  0  0  0  0  0  0  0
    0.5265    1.2798   -6.3622 C   0  0  0  0  0  0  0  0  0  0  0  0
    1.8089    1.4985   -6.9194 C   0  0  0  0  0  0  0  0  0  0  0  0
    2.9167    1.1976   -6.0981 C   0  0  0  0  0  0  0  0  0  0  0  0
    2.7694    0.7189   -4.8139 C   0  0  0  0  0  0  0  0  0  0  0  0
    4.3128    1.5912   -7.1198 S   0  0  0  0  0  0  0  0  0  0  0  0
    3.4438    2.1333   -8.5788 C   0  0  0  0  0  0  0  0  0  0  0  0
    2.1533    1.9983   -8.2432 C   0  0  0  0  0  0  0  0  0  0  0  0
    1.0696    2.3604   -9.2257 C   0  0  0  0  0  0  0  0  0  0  0  0
    0.6136    3.7742   -8.9722 C   0  0  0  0  0  0  0  0  0  0  0  0
    1.1216    4.4272   -8.0766 O   0  0  0  0  0  0  0  0  0  0  0  0
   -0.2633    4.2650   -9.6626 O   0  5  0  0  0  0  0  0  0  0  0  0
    1.0042    1.8801    0.0026 H   0  0  0  0  0  0  0  0  0  0  0  0
   -0.5455    1.8639   -0.8728 H   0  0  0  0  0  0  0  0  0  0  0  0
   -0.5286    1.8543    0.9071 H   0  0  0  0  0  0  0  0  0  0  0  0
    0.0803   -4.6931    1.1069 H   0  0  0  0  0  0  0  0  0  0  0  0
    0.1103   -6.2149    3.0391 H   0  0  0  0  0  0  0  0  0  0  0  0
    0.0575   -2.8757    5.6941 H   0  0  0  0  0  0  0  0  0  0  0  0
    0.0398   -1.3366    3.7755 H   0  0  0  0  0  0  0  0  0  0  0  0
   -0.5171   -0.8618   -3.2395 H   0  0  0  0  0  0  0  0  0  0  0  0
   -0.5369    0.8045   -2.6141 H   0  0  0  0  0  0  0  0  0  0  0  0
   -0.6016    0.6456   -4.6971 H   0  0  0  0  0  0  0  0  0  0  0  0
   -0.3539    1.4941   -6.9499 H   0  0  0  0  0  0  0  0  0  0  0  0
    3.6386    0.5024   -4.2107 H   0  0  0  0  0  0  0  0  0  0  0  0
    3.8586    2.4868   -9.5112 H   0  0  0  0  0  0  0  0  0  0  0  0
    1.4581    2.2805  -10.2410 H   0  0  0  0  0  0  0  0  0  0  0  0
    0.2270    1.6796   -9.1045 H   0  0  0  0  0  0  0  0  0  0  0  0
  1  2  1  0  0  0  0
  1 32  1  0  0  0  0
  1 33  1  0  0  0  0
  1 34  1  0  0  0  0
  2  6  1  0  0  0  0
  2  3  2  0  0  0  0
  3  4  1  0  0  0  0
  3 17  1  0  0  0  0
  4  5  1  0  0  0  0
  5  6  2  0  0  0  0
  5  7  1  0  0  0  0
  7 12  2  0  0  0  0
  7  8  1  0  0  0  0
  8  9  2  0  0  0  0
  8 35  1  0  0  0  0
  9 10  1  0  0  0  0
  9 36  1  0  0  0  0
 10 11  2  0  0  0  0
 10 13  1  0  0  0  0
 11 12  1  0  0  0  0
 11 37  1  0  0  0  0
 12 38  1  0  0  0  0
 13 14  1  0  0  0  0
 13 15  1  0  0  0  0
 13 16  1  0  0  0  0
 17 18  1  0  0  0  0
 17 39  1  0  0  0  0
 17 40  1  0  0  0  0
 18 19  1  0  0  0  0
 19 24  2  0  0  0  0
 19 20  1  0  0  0  0
 20 21  2  0  0  0  0
 20 41  1  0  0  0  0
 21 22  1  0  0  0  0
 21 42  1  0  0  0  0
 22 27  1  0  0  0  0
 22 23  2  0  0  0  0
 23 24  1  0  0  0  0
 23 25  1  0  0  0  0
 24 43  1  0  0  0  0
 25 26  1  0  0  0  0
 26 27  2  0  0  0  0
 26 44  1  0  0  0  0
 27 28  1  0  0  0  0
 28 29  1  0  0  0  0
 28 45  1  0  0  0  0
 28 46  1  0  0  0  0
 29 30  2  0  0  0  0
 29 31  1  0  0  0  0
M  CHG  1  31  -1
M  END
$$$$
