CHEMBL525262
 OpenBabel05272217113D

 73 76  0  0  0  0  0  0  0  0999 V2000
   -3.1184    0.5112   -5.4996 C   0  0  0  0  0  0  0  0  0  0  0  0
   -2.8302   -0.8173   -4.8491 C   0  0  0  0  0  0  0  0  0  0  0  0
   -1.5825   -1.0668   -4.3123 C   0  0  0  0  0  0  0  0  0  0  0  0
   -1.3173   -2.2913   -3.7123 C   0  0  0  0  0  0  0  0  0  0  0  0
   -2.3080   -3.2638   -3.6531 C   0  0  0  0  0  0  0  0  0  0  0  0
   -3.5546   -3.0122   -4.1904 C   0  0  0  0  0  0  0  0  0  0  0  0
   -3.8200   -1.7868   -4.7847 C   0  0  0  0  0  0  0  0  0  0  0  0
   -5.0499   -1.5381   -5.3090 O   0  0  0  0  0  0  0  0  0  0  0  0
   -6.0214   -2.5812   -5.2077 C   0  0  0  0  0  0  0  0  0  0  0  0
   -7.3128   -2.1279   -5.8382 C   0  0  0  0  0  0  0  0  0  0  0  0
   -7.3939   -1.0147   -6.3289 O   0  0  0  0  0  0  0  0  0  0  0  0
   -8.2767   -2.8743   -5.8577 O   0  5  0  0  0  0  0  0  0  0  0  0
    0.2743   -2.6112   -3.0275 S   0  0  0  0  0  0  0  0  0  0  0  0
    0.1042   -4.1957   -2.2758 C   0  0  0  0  0  0  0  0  0  0  0  0
   -0.0225   -4.3023   -0.8977 C   0  0  0  0  0  0  0  0  0  0  0  0
   -0.1557   -5.5462   -0.3107 C   0  0  0  0  0  0  0  0  0  0  0  0
   -0.1626   -6.6865   -1.0929 C   0  0  0  0  0  0  0  0  0  0  0  0
   -0.0364   -6.5884   -2.4666 C   0  0  0  0  0  0  0  0  0  0  0  0
    0.0908   -5.3453   -3.0638 C   0  0  0  0  0  0  0  0  0  0  0  0
    0.2089   -5.2470   -4.4150 O   0  0  0  0  0  0  0  0  0  0  0  0
    0.1870   -6.4670   -5.1587 C   0  0  0  0  0  0  0  0  0  0  0  0
    0.3310   -6.1579   -6.6502 C   0  0  0  0  0  0  0  0  0  0  0  0
    1.6407   -5.5404   -6.8980 N   0  3  0  0  0  0  0  0  0  0  0  0
    1.7231   -5.1130   -8.3015 C   0  0  0  0  0  0  0  0  0  0  0  0
    3.0884   -4.4698   -8.5571 C   0  0  0  0  0  0  0  0  0  0  0  0
    4.1193   -5.4065   -8.2318 O   0  0  0  0  0  0  0  0  0  0  0  0
    4.0666   -5.8713   -6.8801 C   0  0  0  0  0  0  0  0  0  0  0  0
    2.7031   -6.5171   -6.6214 C   0  0  0  0  0  0  0  0  0  0  0  0
   -0.3077   -8.0401   -0.4466 C   0  0  0  0  0  0  0  0  0  0  0  0
   -1.6930   -8.3799   -0.3586 O   0  0  0  0  0  0  0  0  0  0  0  0
   -1.9997   -9.5784    0.2039 C   0  0  0  0  0  0  0  0  0  0  0  0
   -0.9885  -10.4078    0.6670 C   0  0  0  0  0  0  0  0  0  0  0  0
   -1.3030  -11.6254    1.2388 C   0  0  0  0  0  0  0  0  0  0  0  0
   -2.6241  -12.0179    1.3494 C   0  0  0  0  0  0  0  0  0  0  0  0
   -3.6337  -11.1934    0.8882 C   0  0  0  0  0  0  0  0  0  0  0  0
   -3.3248   -9.9721    0.3212 C   0  0  0  0  0  0  0  0  0  0  0  0
   -2.9642  -13.3470    1.9731 C   0  0  0  0  0  0  0  0  0  0  0  0
   -3.1410  -13.1837    3.3513 F   0  0  0  0  0  0  0  0  0  0  0  0
   -4.1448  -13.8395    1.4066 F   0  0  0  0  0  0  0  0  0  0  0  0
   -1.9226  -14.2515    1.7405 F   0  0  0  0  0  0  0  0  0  0  0  0
   -0.5089   -0.0113   -4.3778 C   0  0  0  0  0  0  0  0  0  0  0  0
   -3.4972    1.2075   -4.7514 H   0  0  0  0  0  0  0  0  0  0  0  0
   -2.2017    0.9090   -5.9349 H   0  0  0  0  0  0  0  0  0  0  0  0
   -3.8646    0.3780   -6.2828 H   0  0  0  0  0  0  0  0  0  0  0  0
   -2.1028   -4.2163   -3.1872 H   0  0  0  0  0  0  0  0  0  0  0  0
   -4.3247   -3.7680   -4.1447 H   0  0  0  0  0  0  0  0  0  0  0  0
   -5.6566   -3.4689   -5.7246 H   0  0  0  0  0  0  0  0  0  0  0  0
   -6.1930   -2.8172   -4.1575 H   0  0  0  0  0  0  0  0  0  0  0  0
   -0.0166   -3.4134   -0.2843 H   0  0  0  0  0  0  0  0  0  0  0  0
   -0.2542   -5.6281    0.7617 H   0  0  0  0  0  0  0  0  0  0  0  0
   -0.0416   -7.4812   -3.0743 H   0  0  0  0  0  0  0  0  0  0  0  0
    1.0124   -7.1028   -4.8380 H   0  0  0  0  0  0  0  0  0  0  0  0
   -0.7575   -6.9822   -4.9839 H   0  0  0  0  0  0  0  0  0  0  0  0
    0.2511   -7.0823   -7.2222 H   0  0  0  0  0  0  0  0  0  0  0  0
   -0.4582   -5.4715   -6.9568 H   0  0  0  0  0  0  0  0  0  0  0  0
    1.6012   -5.9784   -8.9529 H   0  0  0  0  0  0  0  0  0  0  0  0
    0.9355   -4.3884   -8.5078 H   0  0  0  0  0  0  0  0  0  0  0  0
    3.1684   -4.1909   -9.6078 H   0  0  0  0  0  0  0  0  0  0  0  0
    3.1944   -3.5812   -7.9348 H   0  0  0  0  0  0  0  0  0  0  0  0
    4.8545   -6.6066   -6.7171 H   0  0  0  0  0  0  0  0  0  0  0  0
    4.2061   -5.0306   -6.2005 H   0  0  0  0  0  0  0  0  0  0  0  0
    2.6429   -6.8347   -5.5804 H   0  0  0  0  0  0  0  0  0  0  0  0
    2.5808   -7.3819   -7.2734 H   0  0  0  0  0  0  0  0  0  0  0  0
    0.2122   -8.7869   -1.0466 H   0  0  0  0  0  0  0  0  0  0  0  0
    0.1240   -8.0131    0.5539 H   0  0  0  0  0  0  0  0  0  0  0  0
    0.0436  -10.1019    0.5802 H   0  0  0  0  0  0  0  0  0  0  0  0
   -0.5162  -12.2713    1.5994 H   0  0  0  0  0  0  0  0  0  0  0  0
   -4.6648  -11.5025    0.9754 H   0  0  0  0  0  0  0  0  0  0  0  0
   -4.1140   -9.3265   -0.0349 H   0  0  0  0  0  0  0  0  0  0  0  0
   -0.5639    0.6185   -3.4898 H   0  0  0  0  0  0  0  0  0  0  0  0
    0.4692   -0.4902   -4.4236 H   0  0  0  0  0  0  0  0  0  0  0  0
   -0.6555    0.6014   -5.2673 H   0  0  0  0  0  0  0  0  0  0  0  0
    1.7546   -4.7395   -6.2950 H   0  0  0  0  0  0  0  0  0  0  0  0
  1  2  1  0  0  0  0
  1 42  1  0  0  0  0
  1 43  1  0  0  0  0
  1 44  1  0  0  0  0
  2  7  2  0  0  0  0
  2  3  1  0  0  0  0
  3  4  2  0  0  0  0
  3 41  1  0  0  0  0
  4  5  1  0  0  0  0
  4 13  1  0  0  0  0
  5  6  2  0  0  0  0
  5 45  1  0  0  0  0
  6  7  1  0  0  0  0
  6 46  1  0  0  0  0
  7  8  1  0  0  0  0
  8  9  1  0  0  0  0
  9 10  1  0  0  0  0
  9 47  1  0  0  0  0
  9 48  1  0  0  0  0
 10 11  2  0  0  0  0
 10 12  1  0  0  0  0
 13 14  1  0  0  0  0
 14 19  2  0  0  0  0
 14 15  1  0  0  0  0
 15 16  2  0  0  0  0
 15 49  1  0  0  0  0
 16 17  1  0  0  0  0
 16 50  1  0  0  0  0
 17 18  2  0  0  0  0
 17 29  1  0  0  0  0
 18 19  1  0  0  0  0
 18 51  1  0  0  0  0
 19 20  1  0  0  0  0
 20 21  1  0  0  0  0
 21 22  1  0  0  0  0
 21 52  1  0  0  0  0
 21 53  1  0  0  0  0
 22 23  1  0  0  0  0
 22 54  1  0  0  0  0
 22 55  1  0  0  0  0
 23 28  1  0  0  0  0
 23 24  1  0  0  0  0
 23 73  1  0  0  0  0
 24 25  1  0  0  0  0
 24 56  1  0  0  0  0
 24 57  1  0  0  0  0
 25 26  1  0  0  0  0
 25 58  1  0  0  0  0
 25 59  1  0  0  0  0
 26 27  1  0  0  0  0
 27 28  1  0  0  0  0
 27 60  1  0  0  0  0
 27 61  1  0  0  0  0
 28 62  1  0  0  0  0
 28 63  1  0  0  0  0
 29 30  1  0  0  0  0
 29 64  1  0  0  0  0
 29 65  1  0  0  0  0
 30 31  1  0  0  0  0
 31 36  2  0  0  0  0
 31 32  1  0  0  0  0
 32 33  2  0  0  0  0
 32 66  1  0  0  0  0
 33 34  1  0  0  0  0
 33 67  1  0  0  0  0
 34 35  2  0  0  0  0
 34 37  1  0  0  0  0
 35 36  1  0  0  0  0
 35 68  1  0  0  0  0
 36 69  1  0  0  0  0
 37 38  1  0  0  0  0
 37 39  1  0  0  0  0
 37 40  1  0  0  0  0
 41 70  1  0  0  0  0
 41 71  1  0  0  0  0
 41 72  1  0  0  0  0
M  CHG  2  12  -1  23   1
M  END
$$$$
