CHEMBL391283
 OpenBabel05272217113D

 62 64  0  0  1  0  0  0  0  0999 V2000
   -0.0023    1.4952    0.2722 C   0  0  0  0  0  0  0  0  0  0  0  0
    0.0044   -0.0105    0.0009 C   0  0  0  0  0  0  0  0  0  0  0  0
   -1.4104   -0.5293    0.0121 C   0  0  0  0  0  0  0  0  0  0  0  0
   -1.9727   -0.9732    1.1964 C   0  0  0  0  0  0  0  0  0  0  0  0
   -3.2690   -1.4505    1.2170 C   0  0  0  0  0  0  0  0  0  0  0  0
   -4.0140   -1.4876    0.0487 C   0  0  0  0  0  0  0  0  0  0  0  0
   -3.4487   -1.0398   -1.1493 C   0  0  0  0  0  0  0  0  0  0  0  0
   -2.1424   -0.5547   -1.1572 C   0  0  0  0  0  0  0  0  0  0  0  0
   -4.2373   -1.0759   -2.4043 C   0  0  0  0  0  0  0  0  0  0  0  0
   -4.9127   -2.2361   -2.7949 C   0  0  0  0  0  0  0  0  0  0  0  0
   -5.6354   -2.2262   -3.9699 C   0  0  0  0  0  0  0  0  0  0  0  0
   -5.6937   -1.1423   -4.7200 N   0  0  0  0  0  0  0  0  0  0  0  0
   -5.0713   -0.0273   -4.3877 C   0  0  0  0  0  0  0  0  0  0  0  0
   -4.3308    0.0511   -3.2265 C   0  0  0  0  0  0  0  0  0  0  0  0
   -5.2881   -1.9574    0.0674 O   0  0  0  0  0  0  0  0  0  0  0  0
   -5.8402   -2.2847    1.3442 C   0  0  2  0  0  0  0  0  0  0  0  0
   -5.4631   -1.5877    2.0926 H   0  0  0  0  0  0  0  0  0  0  0  0
   -5.4350   -3.7102    1.7247 C   0  0  0  0  0  0  0  0  0  0  0  0
   -7.3658   -2.1880    1.2801 C   0  0  0  0  0  0  0  0  0  0  0  0
   -7.7744   -0.7363    1.0225 C   0  0  0  0  0  0  0  0  0  0  0  0
   -9.1993   -0.6460    0.9626 O   0  0  0  0  0  0  0  0  0  0  0  0
   -9.7307    0.5846    0.7385 C   0  0  0  0  0  0  0  0  0  0  0  0
   -8.8975    1.6818    0.5737 C   0  0  0  0  0  0  0  0  0  0  0  0
   -9.4400    2.9314    0.3456 C   0  0  0  0  0  0  0  0  0  0  0  0
  -10.8123    3.0894    0.2813 C   0  0  0  0  0  0  0  0  0  0  0  0
  -11.6446    1.9979    0.4456 C   0  0  0  0  0  0  0  0  0  0  0  0
  -11.1067    0.7449    0.6684 C   0  0  0  0  0  0  0  0  0  0  0  0
  -13.1397    2.1738    0.3755 C   0  0  0  0  0  0  0  0  0  0  0  0
  -11.4015    4.4539    0.0323 C   0  0  0  0  0  0  0  0  0  0  0  0
  -11.7550    5.1086    1.3692 C   0  0  0  0  0  0  0  0  0  0  0  0
  -12.3442    6.4731    1.1201 C   0  0  0  0  0  0  0  0  0  0  0  0
  -12.4697    6.8839   -0.0209 O   0  0  0  0  0  0  0  0  0  0  0  0
  -12.6954    7.1662    2.0597 O   0  5  0  0  0  0  0  0  0  0  0  0
    1.0211    1.8704    0.2641 H   0  0  0  0  0  0  0  0  0  0  0  0
   -0.5808    2.0011   -0.5008 H   0  0  0  0  0  0  0  0  0  0  0  0
   -0.4518    1.6869    1.2465 H   0  0  0  0  0  0  0  0  0  0  0  0
    0.4540   -0.2022   -0.9733 H   0  0  0  0  0  0  0  0  0  0  0  0
    0.5830   -0.5164    0.7739 H   0  0  0  0  0  0  0  0  0  0  0  0
   -1.3952   -0.9466    2.1087 H   0  0  0  0  0  0  0  0  0  0  0  0
   -3.7022   -1.7955    2.1442 H   0  0  0  0  0  0  0  0  0  0  0  0
   -1.7018   -0.2033   -2.0785 H   0  0  0  0  0  0  0  0  0  0  0  0
   -4.8690   -3.1270   -2.1860 H   0  0  0  0  0  0  0  0  0  0  0  0
   -6.1601   -3.1177   -4.2802 H   0  0  0  0  0  0  0  0  0  0  0  0
   -5.1460    0.8367   -5.0313 H   0  0  0  0  0  0  0  0  0  0  0  0
   -3.8274    0.9682   -2.9584 H   0  0  0  0  0  0  0  0  0  0  0  0
   -5.8562   -3.9598    2.6986 H   0  0  0  0  0  0  0  0  0  0  0  0
   -5.8122   -4.4072    0.9763 H   0  0  0  0  0  0  0  0  0  0  0  0
   -4.3482   -3.7790    1.7704 H   0  0  0  0  0  0  0  0  0  0  0  0
   -7.7362   -2.8186    0.4718 H   0  0  0  0  0  0  0  0  0  0  0  0
   -7.7911   -2.5228    2.2262 H   0  0  0  0  0  0  0  0  0  0  0  0
   -7.4041   -0.1057    1.8307 H   0  0  0  0  0  0  0  0  0  0  0  0
   -7.3491   -0.4015    0.0764 H   0  0  0  0  0  0  0  0  0  0  0  0
   -7.8257    1.5589    0.6242 H   0  0  0  0  0  0  0  0  0  0  0  0
   -8.7919    3.7858    0.2176 H   0  0  0  0  0  0  0  0  0  0  0  0
  -11.7572   -0.1083    0.7922 H   0  0  0  0  0  0  0  0  0  0  0  0
  -13.4730    2.0431   -0.6541 H   0  0  0  0  0  0  0  0  0  0  0  0
  -13.6230    1.4317    1.0108 H   0  0  0  0  0  0  0  0  0  0  0  0
  -13.4043    3.1739    0.7189 H   0  0  0  0  0  0  0  0  0  0  0  0
  -10.6750    5.0727   -0.4945 H   0  0  0  0  0  0  0  0  0  0  0  0
  -12.3023    4.3557   -0.5736 H   0  0  0  0  0  0  0  0  0  0  0  0
  -12.4815    4.4897    1.8959 H   0  0  0  0  0  0  0  0  0  0  0  0
  -10.8542    5.2068    1.9751 H   0  0  0  0  0  0  0  0  0  0  0  0
  1  2  1  0  0  0  0
  1 34  1  0  0  0  0
  1 35  1  0  0  0  0
  1 36  1  0  0  0  0
  2  3  1  0  0  0  0
  2 37  1  0  0  0  0
  2 38  1  0  0  0  0
  3  8  2  0  0  0  0
  3  4  1  0  0  0  0
  4  5  2  0  0  0  0
  4 39  1  0  0  0  0
  5  6  1  0  0  0  0
  5 40  1  0  0  0  0
  6  7  2  0  0  0  0
  6 15  1  0  0  0  0
  7  8  1  0  0  0  0
  7  9  1  0  0  0  0
  8 41  1  0  0  0  0
  9 14  2  0  0  0  0
  9 10  1  0  0  0  0
 10 11  2  0  0  0  0
 10 42  1  0  0  0  0
 11 12  1  0  0  0  0
 11 43  1  0  0  0  0
 12 13  2  0  0  0  0
 13 14  1  0  0  0  0
 13 44  1  0  0  0  0
 14 45  1  0  0  0  0
 15 16  1  0  0  0  0
 16 17  1  1  0  0  0
 16 18  1  0  0  0  0
 16 19  1  0  0  0  0
 18 46  1  0  0  0  0
 18 47  1  0  0  0  0
 18 48  1  0  0  0  0
 19 20  1  0  0  0  0
 19 49  1  0  0  0  0
 19 50  1  0  0  0  0
 20 21  1  0  0  0  0
 20 51  1  0  0  0  0
 20 52  1  0  0  0  0
 21 22  1  0  0  0  0
 22 27  2  0  0  0  0
 22 23  1  0  0  0  0
 23 24  2  0  0  0  0
 23 53  1  0  0  0  0
 24 25  1  0  0  0  0
 24 54  1  0  0  0  0
 25 26  2  0  0  0  0
 25 29  1  0  0  0  0
 26 27  1  0  0  0  0
 26 28  1  0  0  0  0
 27 55  1  0  0  0  0
 28 56  1  0  0  0  0
 28 57  1  0  0  0  0
 28 58  1  0  0  0  0
 29 30  1  0  0  0  0
 29 59  1  0  0  0  0
 29 60  1  0  0  0  0
 30 31  1  0  0  0  0
 30 61  1  0  0  0  0
 30 62  1  0  0  0  0
 31 32  2  0  0  0  0
 31 33  1  0  0  0  0
M  CHG  1  33  -1
M  END
$$$$
