CHEMBL197496
 OpenBabel05272217113D

 63 67  0  0  0  0  0  0  0  0999 V2000
   -0.0187    1.5258    0.0104 C   0  0  0  0  0  0  0  0  0  0  0  0
    0.0021   -0.0041    0.0020 C   0  0  0  0  0  0  0  0  0  0  0  0
   -1.4333   -0.5336    0.0129 C   0  0  0  0  0  0  0  0  0  0  0  0
   -1.4129   -2.0405    0.0046 C   0  0  0  0  0  0  0  0  0  0  0  0
   -1.4091   -2.7284   -1.1962 C   0  0  0  0  0  0  0  0  0  0  0  0
   -1.3902   -4.1207   -1.2118 C   0  0  0  0  0  0  0  0  0  0  0  0
   -1.3752   -4.8252   -0.0419 C   0  0  0  0  0  0  0  0  0  0  0  0
   -1.3783   -4.1476    1.1779 C   0  0  0  0  0  0  0  0  0  0  0  0
   -1.3920   -2.7435    1.2015 C   0  0  0  0  0  0  0  0  0  0  0  0
   -1.3848   -2.3644    2.4958 O   0  0  0  0  0  0  0  0  0  0  0  0
   -1.3608   -3.5099    3.3232 N   0  0  0  0  0  0  0  0  0  0  0  0
   -1.3652   -4.5862    2.5826 C   0  0  0  0  0  0  0  0  0  0  0  0
   -1.3448   -5.9876    3.0666 C   0  0  0  0  0  0  0  0  0  0  0  0
   -2.0229   -6.9811    2.3621 C   0  0  0  0  0  0  0  0  0  0  0  0
   -2.0005   -8.2836    2.8174 C   0  0  0  0  0  0  0  0  0  0  0  0
   -1.3069   -8.6042    3.9706 C   0  0  0  0  0  0  0  0  0  0  0  0
   -0.6322   -7.6225    4.6738 C   0  0  0  0  0  0  0  0  0  0  0  0
   -0.6428   -6.3176    4.2248 C   0  0  0  0  0  0  0  0  0  0  0  0
   -1.4243   -2.0408   -2.3676 O   0  0  0  0  0  0  0  0  0  0  0  0
   -1.4194   -2.8103   -3.5717 C   0  0  0  0  0  0  0  0  0  0  0  0
   -1.4384   -1.8697   -4.7782 C   0  0  0  0  0  0  0  0  0  0  0  0
   -1.4331   -2.6936   -6.0674 C   0  0  0  0  0  0  0  0  0  0  0  0
   -1.4508   -1.8150   -7.1943 O   0  0  0  0  0  0  0  0  0  0  0  0
   -1.4488   -2.3905   -8.4252 C   0  0  0  0  0  0  0  0  0  0  0  0
   -1.4360   -3.7664   -8.5496 C   0  0  0  0  0  0  0  0  0  0  0  0
   -1.4343   -4.3561   -9.8056 C   0  0  0  0  0  0  0  0  0  0  0  0
   -1.4449   -3.5831  -10.9459 C   0  0  0  0  0  0  0  0  0  0  0  0
   -1.4579   -2.1950  -10.8462 C   0  0  0  0  0  0  0  0  0  0  0  0
   -1.4655   -1.5930   -9.5760 C   0  0  0  0  0  0  0  0  0  0  0  0
   -1.4863   -0.1474   -9.8117 C   0  0  0  0  0  0  0  0  0  0  0  0
   -1.4954    0.0330  -11.1416 C   0  0  0  0  0  0  0  0  0  0  0  0
   -1.4702   -1.1800  -11.7766 N   0  0  0  0  0  0  0  0  0  0  0  0
   -1.4721   -1.3697  -13.2293 C   0  0  0  0  0  0  0  0  0  0  0  0
   -2.8868   -1.5714  -13.7077 C   0  0  0  0  0  0  0  0  0  0  0  0
   -3.8081   -1.5579  -12.9093 O   0  0  0  0  0  0  0  0  0  0  0  0
   -3.1101   -1.7481  -14.8932 O   0  5  0  0  0  0  0  0  0  0  0  0
    1.0039    1.9031    0.0027 H   0  0  0  0  0  0  0  0  0  0  0  0
   -0.5459    1.8868   -0.8726 H   0  0  0  0  0  0  0  0  0  0  0  0
   -0.5289    1.8773    0.9072 H   0  0  0  0  0  0  0  0  0  0  0  0
    0.5123   -0.3556   -0.8948 H   0  0  0  0  0  0  0  0  0  0  0  0
    0.5293   -0.3651    0.8851 H   0  0  0  0  0  0  0  0  0  0  0  0
   -1.9435   -0.1821    0.9097 H   0  0  0  0  0  0  0  0  0  0  0  0
   -1.9605   -0.1726   -0.8702 H   0  0  0  0  0  0  0  0  0  0  0  0
   -1.3878   -4.6467   -2.1550 H   0  0  0  0  0  0  0  0  0  0  0  0
   -1.3613   -5.9050   -0.0608 H   0  0  0  0  0  0  0  0  0  0  0  0
   -2.5650   -6.7318    1.4619 H   0  0  0  0  0  0  0  0  0  0  0  0
   -2.5257   -9.0541    2.2726 H   0  0  0  0  0  0  0  0  0  0  0  0
   -1.2924   -9.6249    4.3233 H   0  0  0  0  0  0  0  0  0  0  0  0
   -0.0926   -7.8785    5.5737 H   0  0  0  0  0  0  0  0  0  0  0  0
   -0.1118   -5.5528    4.7720 H   0  0  0  0  0  0  0  0  0  0  0  0
   -0.5209   -3.4265   -3.6054 H   0  0  0  0  0  0  0  0  0  0  0  0
   -2.3007   -3.4513   -3.5968 H   0  0  0  0  0  0  0  0  0  0  0  0
   -2.3369   -1.2535   -4.7444 H   0  0  0  0  0  0  0  0  0  0  0  0
   -0.5571   -1.2287   -4.7530 H   0  0  0  0  0  0  0  0  0  0  0  0
   -0.5346   -3.3098   -6.1011 H   0  0  0  0  0  0  0  0  0  0  0  0
   -2.3144   -3.3346   -6.0925 H   0  0  0  0  0  0  0  0  0  0  0  0
   -1.4269   -4.3860   -7.6651 H   0  0  0  0  0  0  0  0  0  0  0  0
   -1.4243   -5.4327   -9.8902 H   0  0  0  0  0  0  0  0  0  0  0  0
   -1.4428   -4.0546  -11.9176 H   0  0  0  0  0  0  0  0  0  0  0  0
   -1.4935    0.6264   -9.0583 H   0  0  0  0  0  0  0  0  0  0  0  0
   -1.5110    0.9924  -11.6373 H   0  0  0  0  0  0  0  0  0  0  0  0
   -1.0476   -0.4891  -13.7113 H   0  0  0  0  0  0  0  0  0  0  0  0
   -0.8747   -2.2457  -13.4820 H   0  0  0  0  0  0  0  0  0  0  0  0
  1  2  1  0  0  0  0
  1 37  1  0  0  0  0
  1 38  1  0  0  0  0
  1 39  1  0  0  0  0
  2  3  1  0  0  0  0
  2 40  1  0  0  0  0
  2 41  1  0  0  0  0
  3  4  1  0  0  0  0
  3 42  1  0  0  0  0
  3 43  1  0  0  0  0
  4  9  2  0  0  0  0
  4  5  1  0  0  0  0
  5  6  2  0  0  0  0
  5 19  1  0  0  0  0
  6  7  1  0  0  0  0
  6 44  1  0  0  0  0
  7  8  2  0  0  0  0
  7 45  1  0  0  0  0
  8 12  1  0  0  0  0
  8  9  1  0  0  0  0
  9 10  1  0  0  0  0
 10 11  1  0  0  0  0
 11 12  2  0  0  0  0
 12 13  1  0  0  0  0
 13 18  2  0  0  0  0
 13 14  1  0  0  0  0
 14 15  2  0  0  0  0
 14 46  1  0  0  0  0
 15 16  1  0  0  0  0
 15 47  1  0  0  0  0
 16 17  2  0  0  0  0
 16 48  1  0  0  0  0
 17 18  1  0  0  0  0
 17 49  1  0  0  0  0
 18 50  1  0  0  0  0
 19 20  1  0  0  0  0
 20 21  1  0  0  0  0
 20 51  1  0  0  0  0
 20 52  1  0  0  0  0
 21 22  1  0  0  0  0
 21 53  1  0  0  0  0
 21 54  1  0  0  0  0
 22 23  1  0  0  0  0
 22 55  1  0  0  0  0
 22 56  1  0  0  0  0
 23 24  1  0  0  0  0
 24 29  2  0  0  0  0
 24 25  1  0  0  0  0
 25 26  2  0  0  0  0
 25 57  1  0  0  0  0
 26 27  1  0  0  0  0
 26 58  1  0  0  0  0
 27 28  2  0  0  0  0
 27 59  1  0  0  0  0
 28 32  1  0  0  0  0
 28 29  1  0  0  0  0
 29 30  1  0  0  0  0
 30 31  2  0  0  0  0
 30 60  1  0  0  0  0
 31 32  1  0  0  0  0
 31 61  1  0  0  0  0
 32 33  1  0  0  0  0
 33 34  1  0  0  0  0
 33 62  1  0  0  0  0
 33 63  1  0  0  0  0
 34 35  2  0  0  0  0
 34 36  1  0  0  0  0
M  CHG  1  36  -1
M  END
$$$$
