CHEMBL219688
 OpenBabel05272217113D

 56 59  0  0  1  0  0  0  0  0999 V2000
   -0.7729    2.4321    0.3697 C   0  0  0  0  0  0  0  0  0  0  0  0
   -0.5073    0.9528    0.2595 C   0  0  0  0  0  0  0  0  0  0  0  0
   -0.3905    0.3650   -0.9820 C   0  0  0  0  0  0  0  0  0  0  0  0
   -0.1440   -1.0050   -1.0830 C   0  0  0  0  0  0  0  0  0  0  0  0
   -0.0167   -1.7750    0.0745 C   0  0  0  0  0  0  0  0  0  0  0  0
   -0.1346   -1.1803    1.3120 C   0  0  0  0  0  0  0  0  0  0  0  0
   -0.3747    0.1845    1.4086 C   0  0  0  0  0  0  0  0  0  0  0  0
   -0.4848    0.7682    2.6302 O   0  0  0  0  0  0  0  0  0  0  0  0
   -0.3378   -0.0805    3.7704 C   0  0  0  0  0  0  0  0  0  0  0  0
   -0.4921    0.7488    5.0468 C   0  0  0  0  0  0  0  0  0  0  0  0
   -0.3347   -0.1599    6.2676 C   0  0  0  0  0  0  0  0  0  0  0  0
   -0.4789    0.6147    7.4597 O   0  0  0  0  0  0  0  0  0  0  0  0
   -0.3658   -0.0458    8.6421 C   0  0  0  0  0  0  0  0  0  0  0  0
   -0.1154   -1.4104    8.6555 C   0  0  0  0  0  0  0  0  0  0  0  0
   -0.0014   -2.0767    9.8586 C   0  0  0  0  0  0  0  0  0  0  0  0
   -0.1363   -1.3890   11.0538 C   0  0  0  0  0  0  0  0  0  0  0  0
   -0.3859   -0.0291   11.0430 C   0  0  0  0  0  0  0  0  0  0  0  0
   -0.4946    0.6430    9.8379 C   0  0  0  0  0  0  0  0  0  0  0  0
   -0.4905    0.4831   12.4637 C   0  0  0  0  0  0  0  0  0  0  0  0
   -0.7138   -0.7739   13.3309 C   0  0  0  0  0  0  0  0  0  0  0  0
   -0.0560   -1.8828   12.4826 C   0  0  1  0  0  0  0  0  0  0  0  0
    0.9845   -2.0181   12.7781 H   0  0  0  0  0  0  0  0  0  0  0  0
   -0.8271   -3.1955   12.6347 C   0  0  0  0  0  0  0  0  0  0  0  0
   -0.6196   -3.7420   14.0237 C   0  0  0  0  0  0  0  0  0  0  0  0
    0.1620   -3.1955   14.7833 O   0  0  0  0  0  0  0  0  0  0  0  0
   -1.2333   -4.7305   14.3879 O   0  5  0  0  0  0  0  0  0  0  0  0
   -0.0186   -1.6393   -2.4125 C   0  0  0  0  0  0  0  0  0  0  0  0
    0.2066   -2.9120   -2.7071 N   0  0  0  0  0  0  0  0  0  0  0  0
    0.2772   -3.2402   -3.9748 C   0  0  0  0  0  0  0  0  0  0  0  0
    0.1217   -2.2953   -4.8710 N   0  0  0  0  0  0  0  0  0  0  0  0
   -0.1330   -0.9301   -3.9319 S   0  0  0  0  0  0  0  0  0  0  0  0
    0.5310   -4.6662   -4.3911 C   0  0  0  0  0  0  0  0  0  0  0  0
   -0.6584   -5.2335   -4.8610 F   0  0  0  0  0  0  0  0  0  0  0  0
    1.4928   -4.6914   -5.4067 F   0  0  0  0  0  0  0  0  0  0  0  0
    0.9940   -5.3975   -3.2920 F   0  0  0  0  0  0  0  0  0  0  0  0
    0.1746    2.9701    0.4008 H   0  0  0  0  0  0  0  0  0  0  0  0
   -1.3504    2.7629   -0.4936 H   0  0  0  0  0  0  0  0  0  0  0  0
   -1.3351    2.6333    1.2816 H   0  0  0  0  0  0  0  0  0  0  0  0
   -0.4900    0.9638   -1.8752 H   0  0  0  0  0  0  0  0  0  0  0  0
    0.1737   -2.8355    0.0003 H   0  0  0  0  0  0  0  0  0  0  0  0
   -0.0362   -1.7753    2.2079 H   0  0  0  0  0  0  0  0  0  0  0  0
   -1.1027   -0.8567    3.7466 H   0  0  0  0  0  0  0  0  0  0  0  0
    0.6493   -0.5426    3.7545 H   0  0  0  0  0  0  0  0  0  0  0  0
    0.2728    1.5249    5.0705 H   0  0  0  0  0  0  0  0  0  0  0  0
   -1.4792    1.2109    5.0627 H   0  0  0  0  0  0  0  0  0  0  0  0
   -1.0997   -0.9361    6.2438 H   0  0  0  0  0  0  0  0  0  0  0  0
    0.6524   -0.6220    6.2517 H   0  0  0  0  0  0  0  0  0  0  0  0
   -0.0103   -1.9503    7.7260 H   0  0  0  0  0  0  0  0  0  0  0  0
    0.1936   -3.1389    9.8686 H   0  0  0  0  0  0  0  0  0  0  0  0
   -0.6847    1.7061    9.8293 H   0  0  0  0  0  0  0  0  0  0  0  0
    0.4331    0.9838   12.7541 H   0  0  0  0  0  0  0  0  0  0  0  0
   -1.3367    1.1636   12.5590 H   0  0  0  0  0  0  0  0  0  0  0  0
   -0.2130   -0.6742   14.2939 H   0  0  0  0  0  0  0  0  0  0  0  0
   -1.7779   -0.9683   13.4647 H   0  0  0  0  0  0  0  0  0  0  0  0
   -1.8893   -3.0141   12.4706 H   0  0  0  0  0  0  0  0  0  0  0  0
   -0.4643   -3.9169   11.9025 H   0  0  0  0  0  0  0  0  0  0  0  0
  1  2  1  0  0  0  0
  1 36  1  0  0  0  0
  1 37  1  0  0  0  0
  1 38  1  0  0  0  0
  2  7  2  0  0  0  0
  2  3  1  0  0  0  0
  3  4  2  0  0  0  0
  3 39  1  0  0  0  0
  4  5  1  0  0  0  0
  4 27  1  0  0  0  0
  5  6  2  0  0  0  0
  5 40  1  0  0  0  0
  6  7  1  0  0  0  0
  6 41  1  0  0  0  0
  7  8  1  0  0  0  0
  8  9  1  0  0  0  0
  9 10  1  0  0  0  0
  9 42  1  0  0  0  0
  9 43  1  0  0  0  0
 10 11  1  0  0  0  0
 10 44  1  0  0  0  0
 10 45  1  0  0  0  0
 11 12  1  0  0  0  0
 11 46  1  0  0  0  0
 11 47  1  0  0  0  0
 12 13  1  0  0  0  0
 13 18  2  0  0  0  0
 13 14  1  0  0  0  0
 14 15  2  0  0  0  0
 14 48  1  0  0  0  0
 15 16  1  0  0  0  0
 15 49  1  0  0  0  0
 16 21  1  0  0  0  0
 16 17  2  0  0  0  0
 17 18  1  0  0  0  0
 17 19  1  0  0  0  0
 18 50  1  0  0  0  0
 19 20  1  0  0  0  0
 19 51  1  0  0  0  0
 19 52  1  0  0  0  0
 20 21  1  0  0  0  0
 20 53  1  0  0  0  0
 20 54  1  0  0  0  0
 21 22  1  1  0  0  0
 21 23  1  0  0  0  0
 23 24  1  0  0  0  0
 23 55  1  0  0  0  0
 23 56  1  0  0  0  0
 24 25  2  0  0  0  0
 24 26  1  0  0  0  0
 27 31  1  0  0  0  0
 27 28  2  0  0  0  0
 28 29  1  0  0  0  0
 29 30  2  0  0  0  0
 29 32  1  0  0  0  0
 30 31  1  0  0  0  0
 32 33  1  0  0  0  0
 32 34  1  0  0  0  0
 32 35  1  0  0  0  0
M  CHG  1  26  -1
M  END
$$$$
