CHEMBL205777
 OpenBabel05272217113D

 61 63  0  0  1  0  0  0  0  0999 V2000
   -0.0187    1.5258    0.0104 C   0  0  0  0  0  0  0  0  0  0  0  0
    0.0021   -0.0041    0.0020 C   0  0  0  0  0  0  0  0  0  0  0  0
    0.7182   -0.4975   -1.2568 C   0  0  1  0  0  0  0  0  0  0  0  0
    2.1536    0.0321   -1.2676 C   0  0  0  0  0  0  0  0  0  0  0  0
    0.7390   -2.0273   -1.2652 C   0  0  0  0  0  0  0  0  0  0  0  0
    1.4443   -2.5133   -2.5051 C   0  0  0  0  0  0  0  0  0  0  0  0
    0.7251   -2.7414   -3.6637 C   0  0  0  0  0  0  0  0  0  0  0  0
    1.3693   -3.1874   -4.8015 C   0  0  0  0  0  0  0  0  0  0  0  0
    2.7391   -3.4059   -4.7810 C   0  0  0  0  0  0  0  0  0  0  0  0
    3.4586   -3.1759   -3.6174 C   0  0  0  0  0  0  0  0  0  0  0  0
    2.8105   -2.7250   -2.4837 C   0  0  0  0  0  0  0  0  0  0  0  0
    3.3751   -3.8450   -5.8989 O   0  0  0  0  0  0  0  0  0  0  0  0
    4.7864   -4.0484   -5.8048 C   0  0  0  0  0  0  0  0  0  0  0  0
    5.3218   -4.5395   -7.1513 C   0  0  0  0  0  0  0  0  0  0  0  0
    6.8329   -4.7571   -7.0506 C   0  0  0  0  0  0  0  0  0  0  0  0
    7.3329   -5.2158   -8.3082 O   0  0  0  0  0  0  0  0  0  0  0  0
    8.6660   -5.4589   -8.3898 C   0  0  0  0  0  0  0  0  0  0  0  0
    9.4740   -5.2625   -7.2713 C   0  0  0  0  0  0  0  0  0  0  0  0
   10.8158   -5.5020   -7.3374 C   0  0  0  0  0  0  0  0  0  0  0  0
   11.3845   -5.9483   -8.5359 C   0  0  0  0  0  0  0  0  0  0  0  0
   12.8210   -6.2140   -8.6360 C   0  0  0  0  0  0  0  0  0  0  0  0
   13.3125   -6.6457   -9.8266 C   0  0  0  0  0  0  0  0  0  0  0  0
   12.4418   -6.8251  -10.9211 C   0  0  0  0  0  0  0  0  0  0  0  0
   12.8955   -7.2127  -11.9829 O   0  0  0  0  0  0  0  0  0  0  0  0
   11.1258   -6.5802  -10.8227 O   0  0  0  0  0  0  0  0  0  0  0  0
   10.5736   -6.1488   -9.6685 C   0  0  0  0  0  0  0  0  0  0  0  0
    9.2110   -5.9055   -9.5823 C   0  0  0  0  0  0  0  0  0  0  0  0
    8.3272   -6.1204  -10.7838 C   0  0  0  0  0  0  0  0  0  0  0  0
   13.7297   -6.0135   -7.4506 C   0  0  0  0  0  0  0  0  0  0  0  0
   15.0429   -6.3354   -7.8098 F   0  0  0  0  0  0  0  0  0  0  0  0
   13.6727   -4.6773   -7.0401 F   0  0  0  0  0  0  0  0  0  0  0  0
   13.3169   -6.8417   -6.4013 F   0  0  0  0  0  0  0  0  0  0  0  0
   -0.0107    0.0017   -2.4777 C   0  0  0  0  0  0  0  0  0  0  0  0
   -1.0102    0.6885   -2.3526 O   0  0  0  0  0  0  0  0  0  0  0  0
    0.3993   -0.2812   -3.5905 O   0  5  0  0  0  0  0  0  0  0  0  0
    1.0039    1.9031    0.0027 H   0  0  0  0  0  0  0  0  0  0  0  0
   -0.5459    1.8868   -0.8726 H   0  0  0  0  0  0  0  0  0  0  0  0
   -0.5289    1.8773    0.9072 H   0  0  0  0  0  0  0  0  0  0  0  0
    0.5293   -0.3651    0.8851 H   0  0  0  0  0  0  0  0  0  0  0  0
   -1.0205   -0.3814    0.0098 H   0  0  0  0  0  0  0  0  0  0  0  0
    2.6808   -0.3290   -0.3846 H   0  0  0  0  0  0  0  0  0  0  0  0
    2.6638   -0.3194   -2.1644 H   0  0  0  0  0  0  0  0  0  0  0  0
    2.1388    1.1220   -1.2617 H   0  0  0  0  0  0  0  0  0  0  0  0
    1.2661   -2.3884   -0.3821 H   0  0  0  0  0  0  0  0  0  0  0  0
   -0.2836   -2.4046   -1.2575 H   0  0  0  0  0  0  0  0  0  0  0  0
   -0.3413   -2.5711   -3.6791 H   0  0  0  0  0  0  0  0  0  0  0  0
    0.8069   -3.3660   -5.7060 H   0  0  0  0  0  0  0  0  0  0  0  0
    4.5251   -3.3453   -3.5989 H   0  0  0  0  0  0  0  0  0  0  0  0
    3.3708   -2.5416   -1.5789 H   0  0  0  0  0  0  0  0  0  0  0  0
    5.2721   -3.1087   -5.5415 H   0  0  0  0  0  0  0  0  0  0  0  0
    4.9958   -4.7932   -5.0370 H   0  0  0  0  0  0  0  0  0  0  0  0
    4.8361   -5.4791   -7.4146 H   0  0  0  0  0  0  0  0  0  0  0  0
    5.1124   -3.7946   -7.9191 H   0  0  0  0  0  0  0  0  0  0  0  0
    7.3186   -3.8175   -6.7873 H   0  0  0  0  0  0  0  0  0  0  0  0
    7.0423   -5.5020   -6.2828 H   0  0  0  0  0  0  0  0  0  0  0  0
    9.0354   -4.9182   -6.3464 H   0  0  0  0  0  0  0  0  0  0  0  0
   11.4371   -5.3474   -6.4676 H   0  0  0  0  0  0  0  0  0  0  0  0
   14.3674   -6.8507   -9.9346 H   0  0  0  0  0  0  0  0  0  0  0  0
    8.2737   -5.1997  -11.3648 H   0  0  0  0  0  0  0  0  0  0  0  0
    8.7419   -6.9166  -11.4021 H   0  0  0  0  0  0  0  0  0  0  0  0
    7.3269   -6.4004  -10.4536 H   0  0  0  0  0  0  0  0  0  0  0  0
  1  2  1  0  0  0  0
  1 36  1  0  0  0  0
  1 37  1  0  0  0  0
  1 38  1  0  0  0  0
  2  3  1  0  0  0  0
  2 39  1  0  0  0  0
  2 40  1  0  0  0  0
  3  4  1  0  0  0  0
  3  5  1  0  0  0  0
  3 33  1  6  0  0  0
  4 41  1  0  0  0  0
  4 42  1  0  0  0  0
  4 43  1  0  0  0  0
  5  6  1  0  0  0  0
  5 44  1  0  0  0  0
  5 45  1  0  0  0  0
  6 11  2  0  0  0  0
  6  7  1  0  0  0  0
  7  8  2  0  0  0  0
  7 46  1  0  0  0  0
  8  9  1  0  0  0  0
  8 47  1  0  0  0  0
  9 10  2  0  0  0  0
  9 12  1  0  0  0  0
 10 11  1  0  0  0  0
 10 48  1  0  0  0  0
 11 49  1  0  0  0  0
 12 13  1  0  0  0  0
 13 14  1  0  0  0  0
 13 50  1  0  0  0  0
 13 51  1  0  0  0  0
 14 15  1  0  0  0  0
 14 52  1  0  0  0  0
 14 53  1  0  0  0  0
 15 16  1  0  0  0  0
 15 54  1  0  0  0  0
 15 55  1  0  0  0  0
 16 17  1  0  0  0  0
 17 27  2  0  0  0  0
 17 18  1  0  0  0  0
 18 19  2  0  0  0  0
 18 56  1  0  0  0  0
 19 20  1  0  0  0  0
 19 57  1  0  0  0  0
 20 26  2  0  0  0  0
 20 21  1  0  0  0  0
 21 22  2  0  0  0  0
 21 29  1  0  0  0  0
 22 23  1  0  0  0  0
 22 58  1  0  0  0  0
 23 24  2  0  0  0  0
 23 25  1  0  0  0  0
 25 26  1  0  0  0  0
 26 27  1  0  0  0  0
 27 28  1  0  0  0  0
 28 59  1  0  0  0  0
 28 60  1  0  0  0  0
 28 61  1  0  0  0  0
 29 30  1  0  0  0  0
 29 31  1  0  0  0  0
 29 32  1  0  0  0  0
 33 34  2  0  0  0  0
 33 35  1  0  0  0  0
M  CHG  1  35  -1
M  END
$$$$
