CHEMBL87928
 OpenBabel05272217113D

 62 65  0  0  1  0  0  0  0  0999 V2000
   -0.0187    1.5258    0.0104 C   0  0  0  0  0  0  0  0  0  0  0  0
    0.0021   -0.0041    0.0020 C   0  0  0  0  0  0  0  0  0  0  0  0
    0.6932   -0.4774    1.1597 O   0  0  0  0  0  0  0  0  0  0  0  0
    0.7699   -1.9016    1.2491 C   0  0  1  0  0  0  0  0  0  0  0  0
    0.7819   -2.3284    0.2462 H   0  0  0  0  0  0  0  0  0  0  0  0
    2.0499   -2.2981    1.9875 C   0  0  0  0  0  0  0  0  0  0  0  0
    3.2484   -1.8847    1.1728 C   0  0  0  0  0  0  0  0  0  0  0  0
    3.7840   -2.7557    0.2422 C   0  0  0  0  0  0  0  0  0  0  0  0
    4.8829   -2.3792   -0.5056 C   0  0  0  0  0  0  0  0  0  0  0  0
    5.4488   -1.1259   -0.3223 C   0  0  0  0  0  0  0  0  0  0  0  0
    4.9092   -0.2536    0.6118 C   0  0  0  0  0  0  0  0  0  0  0  0
    3.8070   -0.6328    1.3533 C   0  0  0  0  0  0  0  0  0  0  0  0
    6.5301   -0.7534   -1.0564 O   0  0  0  0  0  0  0  0  0  0  0  0
    7.0601    0.5515   -0.8146 C   0  0  0  0  0  0  0  0  0  0  0  0
    8.2468    0.7862   -1.7134 C   0  0  0  0  0  0  0  0  0  0  0  0
    8.3717    1.9479   -2.3678 C   0  0  0  0  0  0  0  0  0  0  0  0
    7.3422    3.0035   -2.2080 C   0  0  0  0  0  0  0  0  0  0  0  0
    6.5550    3.3830   -3.2939 C   0  0  0  0  0  0  0  0  0  0  0  0
    5.5986    4.3659   -3.1394 C   0  0  0  0  0  0  0  0  0  0  0  0
    5.4207    4.9743   -1.9099 C   0  0  0  0  0  0  0  0  0  0  0  0
    6.1993    4.6020   -0.8288 C   0  0  0  0  0  0  0  0  0  0  0  0
    7.1542    3.6156   -0.9700 C   0  0  0  0  0  0  0  0  0  0  0  0
    9.5384    2.1787   -3.2515 C   0  0  0  0  0  0  0  0  0  0  0  0
   10.4716    3.1657   -2.9309 C   0  0  0  0  0  0  0  0  0  0  0  0
   11.5560    3.3805   -3.7510 C   0  0  0  0  0  0  0  0  0  0  0  0
   11.7223    2.6100   -4.9048 C   0  0  0  0  0  0  0  0  0  0  0  0
   10.7874    1.6220   -5.2249 C   0  0  0  0  0  0  0  0  0  0  0  0
    9.7065    1.4051   -4.4008 C   0  0  0  0  0  0  0  0  0  0  0  0
   12.8850    2.8400   -5.7854 C   0  0  0  0  0  0  0  0  0  0  0  0
   13.1611    2.1675   -6.9353 C   0  0  0  0  0  0  0  0  0  0  0  0
   14.3567    2.7105   -7.4458 C   0  0  0  0  0  0  0  0  0  0  0  0
   14.7475    3.6772   -6.5922 C   0  0  0  0  0  0  0  0  0  0  0  0
   13.8536    3.7561   -5.5930 O   0  0  0  0  0  0  0  0  0  0  0  0
   -0.4267   -2.4228    2.0025 C   0  0  0  0  0  0  0  0  0  0  0  0
   -0.6021   -3.6243    2.1120 O   0  0  0  0  0  0  0  0  0  0  0  0
   -1.2193   -1.6429    2.5025 O   0  5  0  0  0  0  0  0  0  0  0  0
    1.0039    1.9031    0.0027 H   0  0  0  0  0  0  0  0  0  0  0  0
   -0.5459    1.8868   -0.8726 H   0  0  0  0  0  0  0  0  0  0  0  0
   -0.5289    1.8773    0.9072 H   0  0  0  0  0  0  0  0  0  0  0  0
   -1.0205   -0.3814    0.0098 H   0  0  0  0  0  0  0  0  0  0  0  0
    0.5123   -0.3556   -0.8948 H   0  0  0  0  0  0  0  0  0  0  0  0
    2.0796   -1.7996    2.9564 H   0  0  0  0  0  0  0  0  0  0  0  0
    2.0651   -3.3781    2.1339 H   0  0  0  0  0  0  0  0  0  0  0  0
    3.3432   -3.7313    0.0999 H   0  0  0  0  0  0  0  0  0  0  0  0
    5.3014   -3.0602   -1.2319 H   0  0  0  0  0  0  0  0  0  0  0  0
    5.3479    0.7226    0.7563 H   0  0  0  0  0  0  0  0  0  0  0  0
    3.3839    0.0475    2.0775 H   0  0  0  0  0  0  0  0  0  0  0  0
    6.2941    1.2988   -1.0215 H   0  0  0  0  0  0  0  0  0  0  0  0
    7.3721    0.6297    0.2269 H   0  0  0  0  0  0  0  0  0  0  0  0
    8.9965    0.0176   -1.8297 H   0  0  0  0  0  0  0  0  0  0  0  0
    6.6936    2.9091   -4.2544 H   0  0  0  0  0  0  0  0  0  0  0  0
    4.9882    4.6608   -3.9800 H   0  0  0  0  0  0  0  0  0  0  0  0
    4.6713    5.7432   -1.7936 H   0  0  0  0  0  0  0  0  0  0  0  0
    6.0566    5.0809    0.1286 H   0  0  0  0  0  0  0  0  0  0  0  0
    7.7583    3.3223   -0.1241 H   0  0  0  0  0  0  0  0  0  0  0  0
   10.3427    3.7613   -2.0393 H   0  0  0  0  0  0  0  0  0  0  0  0
   12.2778    4.1445   -3.5030 H   0  0  0  0  0  0  0  0  0  0  0  0
   10.9150    1.0263   -6.1167 H   0  0  0  0  0  0  0  0  0  0  0  0
    8.9860    0.6388   -4.6459 H   0  0  0  0  0  0  0  0  0  0  0  0
   12.5769    1.3710   -7.3721 H   0  0  0  0  0  0  0  0  0  0  0  0
   14.8640    2.4091   -8.3504 H   0  0  0  0  0  0  0  0  0  0  0  0
   15.6310    4.2897   -6.6964 H   0  0  0  0  0  0  0  0  0  0  0  0
  1  2  1  0  0  0  0
  1 37  1  0  0  0  0
  1 38  1  0  0  0  0
  1 39  1  0  0  0  0
  2  3  1  0  0  0  0
  2 40  1  0  0  0  0
  2 41  1  0  0  0  0
  3  4  1  0  0  0  0
  4  5  1  6  0  0  0
  4  6  1  0  0  0  0
  4 34  1  0  0  0  0
  6  7  1  0  0  0  0
  6 42  1  0  0  0  0
  6 43  1  0  0  0  0
  7 12  2  0  0  0  0
  7  8  1  0  0  0  0
  8  9  2  0  0  0  0
  8 44  1  0  0  0  0
  9 10  1  0  0  0  0
  9 45  1  0  0  0  0
 10 11  2  0  0  0  0
 10 13  1  0  0  0  0
 11 12  1  0  0  0  0
 11 46  1  0  0  0  0
 12 47  1  0  0  0  0
 13 14  1  0  0  0  0
 14 15  1  0  0  0  0
 14 48  1  0  0  0  0
 14 49  1  0  0  0  0
 15 16  2  0  0  0  0
 15 50  1  0  0  0  0
 16 17  1  0  0  0  0
 16 23  1  0  0  0  0
 17 22  2  0  0  0  0
 17 18  1  0  0  0  0
 18 19  2  0  0  0  0
 18 51  1  0  0  0  0
 19 20  1  0  0  0  0
 19 52  1  0  0  0  0
 20 21  2  0  0  0  0
 20 53  1  0  0  0  0
 21 22  1  0  0  0  0
 21 54  1  0  0  0  0
 22 55  1  0  0  0  0
 23 28  2  0  0  0  0
 23 24  1  0  0  0  0
 24 25  2  0  0  0  0
 24 56  1  0  0  0  0
 25 26  1  0  0  0  0
 25 57  1  0  0  0  0
 26 27  2  0  0  0  0
 26 29  1  0  0  0  0
 27 28  1  0  0  0  0
 27 58  1  0  0  0  0
 28 59  1  0  0  0  0
 29 33  1  0  0  0  0
 29 30  2  0  0  0  0
 30 31  1  0  0  0  0
 30 60  1  0  0  0  0
 31 32  2  0  0  0  0
 31 61  1  0  0  0  0
 32 33  1  0  0  0  0
 32 62  1  0  0  0  0
 34 35  2  0  0  0  0
 34 36  1  0  0  0  0
M  CHG  1  36  -1
M  END
$$$$
