CHEMBL1081241
 OpenBabel05272217113D

 56 59  0  0  0  0  0  0  0  0999 V2000
   -1.5819    0.2159   -0.2486 C   0  0  0  0  0  0  0  0  0  0  0  0
   -0.2235   -0.1742   -0.0374 O   0  0  0  0  0  0  0  0  0  0  0  0
    0.4255   -0.7430   -1.0872 C   0  0  0  0  0  0  0  0  0  0  0  0
   -0.2330   -0.9155   -2.2972 C   0  0  0  0  0  0  0  0  0  0  0  0
    0.4224   -1.4923   -3.3646 C   0  0  0  0  0  0  0  0  0  0  0  0
    1.7487   -1.9021   -3.2277 C   0  0  0  0  0  0  0  0  0  0  0  0
    2.4073   -1.7268   -2.0106 C   0  0  0  0  0  0  0  0  0  0  0  0
    1.7472   -1.1449   -0.9489 C   0  0  0  0  0  0  0  0  0  0  0  0
    2.4559   -2.5225   -4.3720 C   0  0  0  0  0  0  0  0  0  0  0  0
    3.2922   -3.6191   -4.3230 C   0  0  0  0  0  0  0  0  0  0  0  0
    3.7129   -3.8375   -5.5885 O   0  0  0  0  0  0  0  0  0  0  0  0
    3.1536   -2.9092   -6.3765 C   0  0  0  0  0  0  0  0  0  0  0  0
    2.3998   -2.1260   -5.6611 N   0  0  0  0  0  0  0  0  0  0  0  0
    3.3615   -2.7932   -7.8646 C   0  0  0  0  0  0  0  0  0  0  0  0
    4.7819   -1.7143   -8.1944 S   0  0  0  0  0  0  0  0  0  0  0  0
    4.8926   -1.6807   -9.9526 C   0  0  0  0  0  0  0  0  0  0  0  0
    3.9811   -2.3942  -10.7201 C   0  0  0  0  0  0  0  0  0  0  0  0
    4.0682   -2.3670  -12.0981 C   0  0  0  0  0  0  0  0  0  0  0  0
    5.0657   -1.6273  -12.7164 C   0  0  0  0  0  0  0  0  0  0  0  0
    5.9769   -0.9141  -11.9518 C   0  0  0  0  0  0  0  0  0  0  0  0
    5.8886   -0.9355  -10.5728 C   0  0  0  0  0  0  0  0  0  0  0  0
    7.0246   -0.0372   -9.6156 Cl  0  0  0  0  0  0  0  0  0  0  0  0
    5.1505   -1.6018  -14.0736 O   0  0  0  0  0  0  0  0  0  0  0  0
    6.2020   -0.8197  -14.6433 C   0  0  0  0  0  0  0  0  0  0  0  0
    6.1383   -0.9111  -16.1462 C   0  0  0  0  0  0  0  0  0  0  0  0
    5.2727   -1.5837  -16.6799 O   0  0  0  0  0  0  0  0  0  0  0  0
    6.9525   -0.3125  -16.8284 O   0  5  0  0  0  0  0  0  0  0  0  0
    3.6562   -4.3991   -3.1245 C   0  0  0  0  0  0  0  0  0  0  0  0
    2.6642   -4.8243   -2.2373 C   0  0  0  0  0  0  0  0  0  0  0  0
    3.0089   -5.5531   -1.1193 C   0  0  0  0  0  0  0  0  0  0  0  0
    4.3398   -5.8645   -0.8739 C   0  0  0  0  0  0  0  0  0  0  0  0
    5.3293   -5.4435   -1.7528 C   0  0  0  0  0  0  0  0  0  0  0  0
    4.9934   -4.7197   -2.8766 C   0  0  0  0  0  0  0  0  0  0  0  0
    4.6750   -6.5828    0.2297 O   0  0  0  0  0  0  0  0  0  0  0  0
    6.0620   -6.8680    0.4216 C   0  0  0  0  0  0  0  0  0  0  0  0
   -1.6283    0.9492   -1.0537 H   0  0  0  0  0  0  0  0  0  0  0  0
   -2.1732   -0.6588   -0.5194 H   0  0  0  0  0  0  0  0  0  0  0  0
   -1.9803    0.6548    0.6661 H   0  0  0  0  0  0  0  0  0  0  0  0
   -1.2599   -0.5980   -2.4025 H   0  0  0  0  0  0  0  0  0  0  0  0
   -0.0907   -1.6268   -4.3054 H   0  0  0  0  0  0  0  0  0  0  0  0
    3.4340   -2.0432   -1.9010 H   0  0  0  0  0  0  0  0  0  0  0  0
    2.2577   -1.0051   -0.0076 H   0  0  0  0  0  0  0  0  0  0  0  0
    3.5511   -3.7816   -8.2831 H   0  0  0  0  0  0  0  0  0  0  0  0
    2.4687   -2.3692   -8.3242 H   0  0  0  0  0  0  0  0  0  0  0  0
    3.2045   -2.9706  -10.2394 H   0  0  0  0  0  0  0  0  0  0  0  0
    3.3596   -2.9221  -12.6948 H   0  0  0  0  0  0  0  0  0  0  0  0
    6.7533   -0.3388  -12.4342 H   0  0  0  0  0  0  0  0  0  0  0  0
    6.0880    0.2203  -14.3374 H   0  0  0  0  0  0  0  0  0  0  0  0
    7.1641   -1.1969  -14.2968 H   0  0  0  0  0  0  0  0  0  0  0  0
    1.6290   -4.5820   -2.4270 H   0  0  0  0  0  0  0  0  0  0  0  0
    2.2427   -5.8822   -0.4330 H   0  0  0  0  0  0  0  0  0  0  0  0
    6.3631   -5.6877   -1.5578 H   0  0  0  0  0  0  0  0  0  0  0  0
    5.7630   -4.3969   -3.5620 H   0  0  0  0  0  0  0  0  0  0  0  0
    6.1910   -7.4457    1.3369 H   0  0  0  0  0  0  0  0  0  0  0  0
    6.4355   -7.4423   -0.4262 H   0  0  0  0  0  0  0  0  0  0  0  0
    6.6176   -5.9336    0.5004 H   0  0  0  0  0  0  0  0  0  0  0  0
  1  2  1  0  0  0  0
  1 36  1  0  0  0  0
  1 37  1  0  0  0  0
  1 38  1  0  0  0  0
  2  3  1  0  0  0  0
  3  8  2  0  0  0  0
  3  4  1  0  0  0  0
  4  5  2  0  0  0  0
  4 39  1  0  0  0  0
  5  6  1  0  0  0  0
  5 40  1  0  0  0  0
  6  7  2  0  0  0  0
  6  9  1  0  0  0  0
  7  8  1  0  0  0  0
  7 41  1  0  0  0  0
  8 42  1  0  0  0  0
  9 13  1  0  0  0  0
  9 10  2  0  0  0  0
 10 11  1  0  0  0  0
 10 28  1  0  0  0  0
 11 12  1  0  0  0  0
 12 13  2  0  0  0  0
 12 14  1  0  0  0  0
 14 15  1  0  0  0  0
 14 43  1  0  0  0  0
 14 44  1  0  0  0  0
 15 16  1  0  0  0  0
 16 21  2  0  0  0  0
 16 17  1  0  0  0  0
 17 18  2  0  0  0  0
 17 45  1  0  0  0  0
 18 19  1  0  0  0  0
 18 46  1  0  0  0  0
 19 20  2  0  0  0  0
 19 23  1  0  0  0  0
 20 21  1  0  0  0  0
 20 47  1  0  0  0  0
 21 22  1  0  0  0  0
 23 24  1  0  0  0  0
 24 25  1  0  0  0  0
 24 48  1  0  0  0  0
 24 49  1  0  0  0  0
 25 26  2  0  0  0  0
 25 27  1  0  0  0  0
 28 33  2  0  0  0  0
 28 29  1  0  0  0  0
 29 30  2  0  0  0  0
 29 50  1  0  0  0  0
 30 31  1  0  0  0  0
 30 51  1  0  0  0  0
 31 32  2  0  0  0  0
 31 34  1  0  0  0  0
 32 33  1  0  0  0  0
 32 52  1  0  0  0  0
 33 53  1  0  0  0  0
 34 35  1  0  0  0  0
 35 54  1  0  0  0  0
 35 55  1  0  0  0  0
 35 56  1  0  0  0  0
M  CHG  1  27  -1
M  END
$$$$
