CHEMBL1081963
 OpenBabel05272217113D

 54 56  0  0  0  0  0  0  0  0999 V2000
   -0.0184    1.5028    0.0103 C   0  0  0  0  0  0  0  0  0  0  0  0
    0.0021   -0.0041    0.0020 C   0  0  0  0  0  0  0  0  0  0  0  0
    0.0058   -0.6883   -1.1982 C   0  0  0  0  0  0  0  0  0  0  0  0
    0.0251   -2.0749   -1.2058 C   0  0  0  0  0  0  0  0  0  0  0  0
    0.0406   -2.7749   -0.0083 C   0  0  0  0  0  0  0  0  0  0  0  0
    0.0369   -2.0909    1.1915 C   0  0  0  0  0  0  0  0  0  0  0  0
    0.0229   -0.7038    1.1991 C   0  0  0  0  0  0  0  0  0  0  0  0
    0.0250   -0.0303    2.3804 O   0  0  0  0  0  0  0  0  0  0  0  0
    0.0470   -0.8150    3.5745 C   0  0  0  0  0  0  0  0  0  0  0  0
    0.0459    0.0965    4.7746 C   0  0  0  0  0  0  0  0  0  0  0  0
    0.0280    1.3060    4.6215 O   0  0  0  0  0  0  0  0  0  0  0  0
    0.0630   -0.3755    5.8986 O   0  5  0  0  0  0  0  0  0  0  0  0
    0.0283   -2.7483   -2.3872 O   0  0  0  0  0  0  0  0  0  0  0  0
    0.0485   -4.1756   -2.3202 C   0  0  0  0  0  0  0  0  0  0  0  0
    0.0491   -4.7440   -3.7159 C   0  0  0  0  0  0  0  0  0  0  0  0
    0.8844   -5.7479   -4.0322 C   0  0  0  0  0  0  0  0  0  0  0  0
    1.7740   -6.2777   -3.0429 C   0  0  0  0  0  0  0  0  0  0  0  0
    2.5033   -6.7120   -2.2319 C   0  0  0  0  0  0  0  0  0  0  0  0
    3.3929   -7.2418   -1.2427 C   0  0  0  0  0  0  0  0  0  0  0  0
    3.3911   -6.7211    0.0543 C   0  0  0  0  0  0  0  0  0  0  0  0
    4.2503   -7.2368    1.0018 C   0  0  0  0  0  0  0  0  0  0  0  0
    5.1131   -8.2669    0.6709 C   0  0  0  0  0  0  0  0  0  0  0  0
    5.1206   -8.7875   -0.6113 C   0  0  0  0  0  0  0  0  0  0  0  0
    4.2630   -8.2860   -1.5679 C   0  0  0  0  0  0  0  0  0  0  0  0
    6.0496   -8.8241    1.7118 C   0  0  0  0  0  0  0  0  0  0  0  0
    5.4232   -9.8773    2.3867 F   0  0  0  0  0  0  0  0  0  0  0  0
    7.2114   -9.2940    1.0901 F   0  0  0  0  0  0  0  0  0  0  0  0
    6.3836   -7.8182    2.6249 F   0  0  0  0  0  0  0  0  0  0  0  0
    0.8850   -6.3076   -5.4067 C   0  0  0  0  0  0  0  0  0  0  0  0
   -0.2432   -6.9638   -5.8947 C   0  0  0  0  0  0  0  0  0  0  0  0
   -0.2378   -7.4821   -7.1737 C   0  0  0  0  0  0  0  0  0  0  0  0
    0.8860   -7.3514   -7.9711 C   0  0  0  0  0  0  0  0  0  0  0  0
    2.0094   -6.7009   -7.4908 C   0  0  0  0  0  0  0  0  0  0  0  0
    2.0118   -6.1737   -6.2155 C   0  0  0  0  0  0  0  0  0  0  0  0
    0.8867   -8.0646   -9.7225 Br  0  0  0  0  0  0  0  0  0  0  0  0
    1.0042    1.8801    0.0026 H   0  0  0  0  0  0  0  0  0  0  0  0
   -0.5455    1.8639   -0.8728 H   0  0  0  0  0  0  0  0  0  0  0  0
   -0.5286    1.8543    0.9071 H   0  0  0  0  0  0  0  0  0  0  0  0
   -0.0067   -0.1432   -2.1305 H   0  0  0  0  0  0  0  0  0  0  0  0
    0.0553   -3.8548   -0.0143 H   0  0  0  0  0  0  0  0  0  0  0  0
    0.0483   -2.6360    2.1238 H   0  0  0  0  0  0  0  0  0  0  0  0
   -0.8341   -1.4560    3.6044 H   0  0  0  0  0  0  0  0  0  0  0  0
    0.9456   -1.4317    3.5875 H   0  0  0  0  0  0  0  0  0  0  0  0
    0.9459   -4.5020   -1.7946 H   0  0  0  0  0  0  0  0  0  0  0  0
   -0.8339   -4.5268   -1.7853 H   0  0  0  0  0  0  0  0  0  0  0  0
   -0.6218   -4.3444   -4.4620 H   0  0  0  0  0  0  0  0  0  0  0  0
    2.7187   -5.9168    0.3138 H   0  0  0  0  0  0  0  0  0  0  0  0
    4.2501   -6.8355    2.0045 H   0  0  0  0  0  0  0  0  0  0  0  0
    5.7970   -9.5911   -0.8624 H   0  0  0  0  0  0  0  0  0  0  0  0
    4.2668   -8.6963   -2.5669 H   0  0  0  0  0  0  0  0  0  0  0  0
   -1.1203   -7.0669   -5.2730 H   0  0  0  0  0  0  0  0  0  0  0  0
   -1.1118   -7.9908   -7.5529 H   0  0  0  0  0  0  0  0  0  0  0  0
    2.8840   -6.6022   -8.1166 H   0  0  0  0  0  0  0  0  0  0  0  0
    2.8871   -5.6621   -5.8433 H   0  0  0  0  0  0  0  0  0  0  0  0
  1  2  1  0  0  0  0
  1 36  1  0  0  0  0
  1 37  1  0  0  0  0
  1 38  1  0  0  0  0
  2  7  2  0  0  0  0
  2  3  1  0  0  0  0
  3  4  2  0  0  0  0
  3 39  1  0  0  0  0
  4  5  1  0  0  0  0
  4 13  1  0  0  0  0
  5  6  2  0  0  0  0
  5 40  1  0  0  0  0
  6  7  1  0  0  0  0
  6 41  1  0  0  0  0
  7  8  1  0  0  0  0
  8  9  1  0  0  0  0
  9 10  1  0  0  0  0
  9 42  1  0  0  0  0
  9 43  1  0  0  0  0
 10 11  2  0  0  0  0
 10 12  1  0  0  0  0
 13 14  1  0  0  0  0
 14 15  1  0  0  0  0
 14 44  1  0  0  0  0
 14 45  1  0  0  0  0
 15 16  2  0  0  0  0
 15 46  1  0  0  0  0
 16 17  1  0  0  0  0
 16 29  1  0  0  0  0
 17 18  3  0  0  0  0
 18 19  1  0  0  0  0
 19 24  2  0  0  0  0
 19 20  1  0  0  0  0
 20 21  2  0  0  0  0
 20 47  1  0  0  0  0
 21 22  1  0  0  0  0
 21 48  1  0  0  0  0
 22 23  2  0  0  0  0
 22 25  1  0  0  0  0
 23 24  1  0  0  0  0
 23 49  1  0  0  0  0
 24 50  1  0  0  0  0
 25 26  1  0  0  0  0
 25 27  1  0  0  0  0
 25 28  1  0  0  0  0
 29 34  2  0  0  0  0
 29 30  1  0  0  0  0
 30 31  2  0  0  0  0
 30 51  1  0  0  0  0
 31 32  1  0  0  0  0
 31 52  1  0  0  0  0
 32 33  2  0  0  0  0
 32 35  1  0  0  0  0
 33 34  1  0  0  0  0
 33 53  1  0  0  0  0
 34 54  1  0  0  0  0
M  CHG  1  12  -1
M  END
$$$$
