CHEMBL118251
 OpenBabel05272217113D

 69 72  0  0  1  0  0  0  0  0999 V2000
   -0.0187    1.5258    0.0104 C   0  0  0  0  0  0  0  0  0  0  0  0
    0.0021   -0.0041    0.0020 C   0  0  0  0  0  0  0  0  0  0  0  0
   -1.4333   -0.5336    0.0129 C   0  0  0  0  0  0  0  0  0  0  0  0
   -1.4129   -2.0405    0.0046 C   0  0  0  0  0  0  0  0  0  0  0  0
   -1.6056   -2.7410    1.1798 C   0  0  0  0  0  0  0  0  0  0  0  0
   -1.5864   -4.1233    1.1729 C   0  0  0  0  0  0  0  0  0  0  0  0
   -1.3750   -4.8084   -0.0096 C   0  0  0  0  0  0  0  0  0  0  0  0
   -1.1823   -4.1127   -1.1871 C   0  0  0  0  0  0  0  0  0  0  0  0
   -1.2062   -2.7254   -1.1838 C   0  0  0  0  0  0  0  0  0  0  0  0
   -1.0225   -2.0387   -2.3421 O   0  0  0  0  0  0  0  0  0  0  0  0
   -0.8152   -2.8094   -3.5274 C   0  0  0  0  0  0  0  0  0  0  0  0
   -0.6290   -1.8700   -4.7206 C   0  0  0  0  0  0  0  0  0  0  0  0
   -0.4071   -2.6953   -5.9897 C   0  0  0  0  0  0  0  0  0  0  0  0
   -0.2331   -1.8179   -7.1041 O   0  0  0  0  0  0  0  0  0  0  0  0
   -0.0238   -2.3947   -8.3167 C   0  0  0  0  0  0  0  0  0  0  0  0
    0.0075   -3.7770   -8.4325 C   0  0  0  0  0  0  0  0  0  0  0  0
    0.2199   -4.3608   -9.6662 C   0  0  0  0  0  0  0  0  0  0  0  0
    0.4012   -3.5688  -10.7852 C   0  0  0  0  0  0  0  0  0  0  0  0
    0.3708   -2.1913  -10.6724 C   0  0  0  0  0  0  0  0  0  0  0  0
    0.1530   -1.6025   -9.4415 C   0  0  0  0  0  0  0  0  0  0  0  0
    0.5692   -1.3313  -11.8938 C   0  0  1  0  0  0  0  0  0  0  0  0
    2.0320   -1.2969  -12.2870 C   0  0  0  0  0  0  0  0  0  0  0  0
    2.9598   -0.8820  -11.6261 O   0  0  0  0  0  0  0  0  0  0  0  0
    2.0850   -1.8257  -13.5266 N   0  0  0  0  0  0  0  0  0  0  0  0
    0.8626   -2.1777  -13.9455 C   0  0  0  0  0  0  0  0  0  0  0  0
    0.6366   -2.6776  -15.0291 O   0  0  0  0  0  0  0  0  0  0  0  0
   -0.0844   -1.9146  -13.0312 O   0  0  0  0  0  0  0  0  0  0  0  0
   -1.7959   -4.8849    2.4564 C   0  0  0  0  0  0  0  0  0  0  0  0
   -0.5212   -5.6944    2.7705 C   0  0  0  0  0  0  0  0  0  0  0  0
   -0.5157   -6.0268    4.2381 C   0  0  0  0  0  0  0  0  0  0  0  0
   -1.1228   -7.4122    4.5309 C   0  0  0  0  0  0  0  0  0  0  0  0
   -2.3893   -7.6970    3.7012 C   0  0  0  0  0  0  0  0  0  0  0  0
   -3.2993   -6.5020    3.6108 C   0  0  0  0  0  0  0  0  0  0  0  0
   -2.9706   -5.7324    2.3151 C   0  0  0  0  0  0  0  0  0  0  0  0
    1.0039    1.9031    0.0027 H   0  0  0  0  0  0  0  0  0  0  0  0
   -0.5459    1.8868   -0.8726 H   0  0  0  0  0  0  0  0  0  0  0  0
   -0.5289    1.8773    0.9072 H   0  0  0  0  0  0  0  0  0  0  0  0
    0.5123   -0.3556   -0.8948 H   0  0  0  0  0  0  0  0  0  0  0  0
    0.5293   -0.3651    0.8851 H   0  0  0  0  0  0  0  0  0  0  0  0
   -1.9435   -0.1821    0.9097 H   0  0  0  0  0  0  0  0  0  0  0  0
   -1.9605   -0.1726   -0.8702 H   0  0  0  0  0  0  0  0  0  0  0  0
   -1.7709   -2.2083    2.1046 H   0  0  0  0  0  0  0  0  0  0  0  0
   -1.3601   -5.8883   -0.0123 H   0  0  0  0  0  0  0  0  0  0  0  0
   -1.0171   -4.6482   -2.1104 H   0  0  0  0  0  0  0  0  0  0  0  0
    0.0753   -3.4266   -3.4084 H   0  0  0  0  0  0  0  0  0  0  0  0
   -1.6804   -3.4495   -3.7005 H   0  0  0  0  0  0  0  0  0  0  0  0
   -1.5195   -1.2528   -4.8396 H   0  0  0  0  0  0  0  0  0  0  0  0
    0.2362   -1.2300   -4.5475 H   0  0  0  0  0  0  0  0  0  0  0  0
    0.4834   -3.3125   -5.8706 H   0  0  0  0  0  0  0  0  0  0  0  0
   -1.2722   -3.3353   -6.1627 H   0  0  0  0  0  0  0  0  0  0  0  0
   -0.1336   -4.3959   -7.5588 H   0  0  0  0  0  0  0  0  0  0  0  0
    0.2448   -5.4367   -9.7568 H   0  0  0  0  0  0  0  0  0  0  0  0
    0.5671   -4.0272  -11.7490 H   0  0  0  0  0  0  0  0  0  0  0  0
    0.1249   -0.5264   -9.3546 H   0  0  0  0  0  0  0  0  0  0  0  0
    0.1960   -0.3230  -11.7145 H   0  0  0  0  0  0  0  0  0  0  0  0
    2.8978   -1.9363  -14.0442 H   0  0  0  0  0  0  0  0  0  0  0  0
   -1.9688   -4.1738    3.2641 H   0  0  0  0  0  0  0  0  0  0  0  0
   -0.5188   -6.6149    2.1866 H   0  0  0  0  0  0  0  0  0  0  0  0
    0.3594   -5.1003    2.5263 H   0  0  0  0  0  0  0  0  0  0  0  0
    0.5123   -6.0085    4.6000 H   0  0  0  0  0  0  0  0  0  0  0  0
   -1.0895   -5.2701    4.7732 H   0  0  0  0  0  0  0  0  0  0  0  0
   -0.3779   -8.1764    4.3089 H   0  0  0  0  0  0  0  0  0  0  0  0
   -1.3761   -7.4683    5.5896 H   0  0  0  0  0  0  0  0  0  0  0  0
   -2.0926   -7.9912    2.6945 H   0  0  0  0  0  0  0  0  0  0  0  0
   -2.9343   -8.5213    4.1612 H   0  0  0  0  0  0  0  0  0  0  0  0
   -4.3375   -6.8334    3.5865 H   0  0  0  0  0  0  0  0  0  0  0  0
   -3.1391   -5.8538    4.4724 H   0  0  0  0  0  0  0  0  0  0  0  0
   -3.8247   -5.1102    2.0478 H   0  0  0  0  0  0  0  0  0  0  0  0
   -2.7942   -6.4497    1.5136 H   0  0  0  0  0  0  0  0  0  0  0  0
  1  2  1  0  0  0  0
  1 35  1  0  0  0  0
  1 36  1  0  0  0  0
  1 37  1  0  0  0  0
  2  3  1  0  0  0  0
  2 38  1  0  0  0  0
  2 39  1  0  0  0  0
  3  4  1  0  0  0  0
  3 40  1  0  0  0  0
  3 41  1  0  0  0  0
  4  9  2  0  0  0  0
  4  5  1  0  0  0  0
  5  6  2  0  0  0  0
  5 42  1  0  0  0  0
  6  7  1  0  0  0  0
  6 28  1  0  0  0  0
  7  8  2  0  0  0  0
  7 43  1  0  0  0  0
  8  9  1  0  0  0  0
  8 44  1  0  0  0  0
  9 10  1  0  0  0  0
 10 11  1  0  0  0  0
 11 12  1  0  0  0  0
 11 45  1  0  0  0  0
 11 46  1  0  0  0  0
 12 13  1  0  0  0  0
 12 47  1  0  0  0  0
 12 48  1  0  0  0  0
 13 14  1  0  0  0  0
 13 49  1  0  0  0  0
 13 50  1  0  0  0  0
 14 15  1  0  0  0  0
 15 20  2  0  0  0  0
 15 16  1  0  0  0  0
 16 17  2  0  0  0  0
 16 51  1  0  0  0  0
 17 18  1  0  0  0  0
 17 52  1  0  0  0  0
 18 19  2  0  0  0  0
 18 53  1  0  0  0  0
 19 20  1  0  0  0  0
 19 21  1  0  0  0  0
 20 54  1  0  0  0  0
 21 27  1  0  0  0  0
 21 22  1  0  0  0  0
 21 55  1  1  0  0  0
 22 23  2  0  0  0  0
 22 24  1  0  0  0  0
 24 25  1  0  0  0  0
 24 56  1  0  0  0  0
 25 26  2  0  0  0  0
 25 27  1  0  0  0  0
 28 34  1  0  0  0  0
 28 29  1  0  0  0  0
 28 57  1  0  0  0  0
 29 30  1  0  0  0  0
 29 58  1  0  0  0  0
 29 59  1  0  0  0  0
 30 31  1  0  0  0  0
 30 60  1  0  0  0  0
 30 61  1  0  0  0  0
 31 32  1  0  0  0  0
 31 62  1  0  0  0  0
 31 63  1  0  0  0  0
 32 33  1  0  0  0  0
 32 64  1  0  0  0  0
 32 65  1  0  0  0  0
 33 34  1  0  0  0  0
 33 66  1  0  0  0  0
 33 67  1  0  0  0  0
 34 68  1  0  0  0  0
 34 69  1  0  0  0  0
M  END
$$$$
