CHEMBL375748
 OpenBabel05272217113D

 52 55  0  0  1  0  0  0  0  0999 V2000
    0.1781    2.4463    0.3969 C   0  0  0  0  0  0  0  0  0  0  0  0
    1.4093    3.0593    0.5035 C   0  0  0  0  0  0  0  0  0  0  0  0
    2.5718    2.3116    0.3768 C   0  0  0  0  0  0  0  0  0  0  0  0
    2.4994    0.9454    0.1427 C   0  0  0  0  0  0  0  0  0  0  0  0
    1.2712    0.3267    0.0352 C   0  0  0  0  0  0  0  0  0  0  0  0
    0.1023    1.0747    0.1623 C   0  0  0  0  0  0  0  0  0  0  0  0
   -1.2207    0.4121    0.0477 C   0  0  0  0  0  0  0  0  0  0  0  0
   -1.3129   -0.9573   -0.1811 C   0  0  0  0  0  0  0  0  0  0  0  0
   -2.5363   -1.5252   -0.2792 C   0  0  0  0  0  0  0  0  0  0  0  0
   -3.6216   -0.1272   -0.0487 S   0  0  0  0  0  0  0  0  0  0  0  0
   -2.3757    1.1321    0.1701 C   0  0  0  0  0  0  0  0  0  0  0  0
    3.7834    2.9185    0.4818 O   0  0  0  0  0  0  0  0  0  0  0  0
    4.9387    2.0893    0.3412 C   0  0  0  0  0  0  0  0  0  0  0  0
    6.2000    2.9427    0.4885 C   0  0  0  0  0  0  0  0  0  0  0  0
    7.4369    2.0549    0.3379 C   0  0  0  0  0  0  0  0  0  0  0  0
    8.6150    2.8520    0.4754 O   0  0  0  0  0  0  0  0  0  0  0  0
    9.8090    2.2121    0.3672 C   0  0  0  0  0  0  0  0  0  0  0  0
    9.8469    0.8459    0.1279 C   0  0  0  0  0  0  0  0  0  0  0  0
   11.0619    0.2006    0.0188 C   0  0  0  0  0  0  0  0  0  0  0  0
   12.2445    0.9108    0.1477 C   0  0  0  0  0  0  0  0  0  0  0  0
   12.2092    2.2722    0.3864 C   0  0  0  0  0  0  0  0  0  0  0  0
   10.9922    2.9233    0.4901 C   0  0  0  0  0  0  0  0  0  0  0  0
   13.6204    2.8108    0.4863 C   0  0  0  0  0  0  0  0  0  0  0  0
   14.5103    1.5714    0.7194 C   0  0  0  0  0  0  0  0  0  0  0  0
   13.6819    0.4421    0.0709 C   0  0  1  0  0  0  0  0  0  0  0  0
   13.9796    0.3038   -0.9685 H   0  0  0  0  0  0  0  0  0  0  0  0
   13.8579   -0.8613    0.8525 C   0  0  0  0  0  0  0  0  0  0  0  0
   15.2565   -1.3843    0.6489 C   0  0  0  0  0  0  0  0  0  0  0  0
   16.0059   -0.8306   -0.1374 O   0  0  0  0  0  0  0  0  0  0  0  0
   15.6385   -2.3611    1.2704 O   0  5  0  0  0  0  0  0  0  0  0  0
   -0.7260    3.0280    0.4997 H   0  0  0  0  0  0  0  0  0  0  0  0
    1.4688    4.1223    0.6853 H   0  0  0  0  0  0  0  0  0  0  0  0
    3.4057    0.3663    0.0442 H   0  0  0  0  0  0  0  0  0  0  0  0
    1.2155   -0.7362   -0.1477 H   0  0  0  0  0  0  0  0  0  0  0  0
   -0.4207   -1.5578   -0.2793 H   0  0  0  0  0  0  0  0  0  0  0  0
   -2.7914   -2.5601   -0.4529 H   0  0  0  0  0  0  0  0  0  0  0  0
   -2.5019    2.1894    0.3509 H   0  0  0  0  0  0  0  0  0  0  0  0
    4.9291    1.3190    1.1124 H   0  0  0  0  0  0  0  0  0  0  0  0
    4.9309    1.6190   -0.6421 H   0  0  0  0  0  0  0  0  0  0  0  0
    6.2096    3.7129   -0.2827 H   0  0  0  0  0  0  0  0  0  0  0  0
    6.2078    3.4130    1.4718 H   0  0  0  0  0  0  0  0  0  0  0  0
    7.4274    1.2847    1.1091 H   0  0  0  0  0  0  0  0  0  0  0  0
    7.4292    1.5846   -0.6454 H   0  0  0  0  0  0  0  0  0  0  0  0
    8.9273    0.2885    0.0275 H   0  0  0  0  0  0  0  0  0  0  0  0
   11.0910   -0.8628   -0.1676 H   0  0  0  0  0  0  0  0  0  0  0  0
   10.9645    3.9876    0.6716 H   0  0  0  0  0  0  0  0  0  0  0  0
   13.9016    3.3091   -0.4414 H   0  0  0  0  0  0  0  0  0  0  0  0
   13.7037    3.4997    1.3269 H   0  0  0  0  0  0  0  0  0  0  0  0
   15.4712    1.6844    0.2175 H   0  0  0  0  0  0  0  0  0  0  0  0
   14.6478    1.3881    1.7851 H   0  0  0  0  0  0  0  0  0  0  0  0
   13.6907   -0.6743    1.9132 H   0  0  0  0  0  0  0  0  0  0  0  0
   13.1387   -1.5987    0.4959 H   0  0  0  0  0  0  0  0  0  0  0  0
  1  6  2  0  0  0  0
  1  2  1  0  0  0  0
  1 31  1  0  0  0  0
  2  3  2  0  0  0  0
  2 32  1  0  0  0  0
  3  4  1  0  0  0  0
  3 12  1  0  0  0  0
  4  5  2  0  0  0  0
  4 33  1  0  0  0  0
  5  6  1  0  0  0  0
  5 34  1  0  0  0  0
  6  7  1  0  0  0  0
  7 11  2  0  0  0  0
  7  8  1  0  0  0  0
  8  9  2  0  0  0  0
  8 35  1  0  0  0  0
  9 10  1  0  0  0  0
  9 36  1  0  0  0  0
 10 11  1  0  0  0  0
 11 37  1  0  0  0  0
 12 13  1  0  0  0  0
 13 14  1  0  0  0  0
 13 38  1  0  0  0  0
 13 39  1  0  0  0  0
 14 15  1  0  0  0  0
 14 40  1  0  0  0  0
 14 41  1  0  0  0  0
 15 16  1  0  0  0  0
 15 42  1  0  0  0  0
 15 43  1  0  0  0  0
 16 17  1  0  0  0  0
 17 22  2  0  0  0  0
 17 18  1  0  0  0  0
 18 19  2  0  0  0  0
 18 44  1  0  0  0  0
 19 20  1  0  0  0  0
 19 45  1  0  0  0  0
 20 25  1  0  0  0  0
 20 21  2  0  0  0  0
 21 22  1  0  0  0  0
 21 23  1  0  0  0  0
 22 46  1  0  0  0  0
 23 24  1  0  0  0  0
 23 47  1  0  0  0  0
 23 48  1  0  0  0  0
 24 25  1  0  0  0  0
 24 49  1  0  0  0  0
 24 50  1  0  0  0  0
 25 26  1  6  0  0  0
 25 27  1  0  0  0  0
 27 28  1  0  0  0  0
 27 51  1  0  0  0  0
 27 52  1  0  0  0  0
 28 29  2  0  0  0  0
 28 30  1  0  0  0  0
M  CHG  1  30  -1
M  END
$$$$
