CHEMBL499312
 OpenBabel05272217113D

 69 72  0  0  0  0  0  0  0  0999 V2000
    0.2498    1.1178    1.6612 C   0  0  0  0  0  0  0  0  0  0  0  0
    1.3914    1.8566    1.4174 C   0  0  0  0  0  0  0  0  0  0  0  0
    2.6222    1.2220    1.3334 C   0  0  0  0  0  0  0  0  0  0  0  0
    2.7031   -0.1536    1.4945 C   0  0  0  0  0  0  0  0  0  0  0  0
    1.5587   -0.8879    1.7381 C   0  0  0  0  0  0  0  0  0  0  0  0
    0.3332   -0.2530    1.8213 C   0  0  0  0  0  0  0  0  0  0  0  0
   -0.9137   -1.0564    2.0876 C   0  0  0  0  0  0  0  0  0  0  0  0
   -1.4722   -1.4672    0.8725 F   0  0  0  0  0  0  0  0  0  0  0  0
   -0.5893   -2.1801    2.8552 F   0  0  0  0  0  0  0  0  0  0  0  0
   -1.8371   -0.2678    2.7824 F   0  0  0  0  0  0  0  0  0  0  0  0
    3.7466    1.9465    1.0932 O   0  0  0  0  0  0  0  0  0  0  0  0
    4.9788    1.2266    1.0197 C   0  0  0  0  0  0  0  0  0  0  0  0
    6.1071    2.1884    0.7492 C   0  0  0  0  0  0  0  0  0  0  0  0
    6.4628    2.4850   -0.5537 C   0  0  0  0  0  0  0  0  0  0  0  0
    7.4965    3.3661   -0.8079 C   0  0  0  0  0  0  0  0  0  0  0  0
    8.1803    3.9557    0.2464 C   0  0  0  0  0  0  0  0  0  0  0  0
    7.8209    3.6561    1.5592 C   0  0  0  0  0  0  0  0  0  0  0  0
    6.7800    2.7762    1.8049 C   0  0  0  0  0  0  0  0  0  0  0  0
    8.4874    4.2302    2.5964 O   0  0  0  0  0  0  0  0  0  0  0  0
    8.0644    3.8763    3.9147 C   0  0  0  0  0  0  0  0  0  0  0  0
    8.8918    4.5875    4.9029 C   0  0  0  0  0  0  0  0  0  0  0  0
    9.5517    5.1546    5.6911 C   0  0  0  0  0  0  0  0  0  0  0  0
   10.3790    5.8658    6.6792 C   0  0  0  0  0  0  0  0  0  0  0  0
    9.9262    5.4869    8.0907 C   0  0  0  0  0  0  0  0  0  0  0  0
   10.7294    6.1773    9.0501 O   0  0  0  0  0  0  0  0  0  0  0  0
    9.4992    5.0792   -0.0741 S   0  0  0  0  0  0  0  0  0  0  0  0
    8.7965    6.6634    0.2442 C   0  0  0  0  0  0  0  0  0  0  0  0
    7.4448    6.7710    0.5342 C   0  0  0  0  0  0  0  0  0  0  0  0
    6.8941    8.0125    0.7825 C   0  0  0  0  0  0  0  0  0  0  0  0
    7.6943    9.1416    0.7373 C   0  0  0  0  0  0  0  0  0  0  0  0
    9.0528    9.0370    0.4447 C   0  0  0  0  0  0  0  0  0  0  0  0
    9.6057    7.7999    0.2081 C   0  0  0  0  0  0  0  0  0  0  0  0
   11.0694    7.6096   -0.0922 C   0  0  0  0  0  0  0  0  0  0  0  0
   11.7074    8.9310   -0.5158 C   0  0  0  0  0  0  0  0  0  0  0  0
   11.3549    9.9956    0.5297 C   0  0  0  0  0  0  0  0  0  0  0  0
    9.8611   10.3075    0.4046 C   0  0  0  0  0  0  0  0  0  0  0  0
    7.1494   10.3637    0.9803 O   0  0  0  0  0  0  0  0  0  0  0  0
    5.7515   10.4041    1.2737 C   0  0  0  0  0  0  0  0  0  0  0  0
    5.3294   11.8308    1.5131 C   0  0  0  0  0  0  0  0  0  0  0  0
    6.1497   12.7298    1.4392 O   0  0  0  0  0  0  0  0  0  0  0  0
    4.1676   12.0862    1.7806 O   0  5  0  0  0  0  0  0  0  0  0  0
   -0.7079    1.6119    1.7311 H   0  0  0  0  0  0  0  0  0  0  0  0
    1.3257    2.9273    1.2920 H   0  0  0  0  0  0  0  0  0  0  0  0
    3.6601   -0.6500    1.4292 H   0  0  0  0  0  0  0  0  0  0  0  0
    1.6212   -1.9587    1.8636 H   0  0  0  0  0  0  0  0  0  0  0  0
    5.1571    0.7140    1.9649 H   0  0  0  0  0  0  0  0  0  0  0  0
    4.9244    0.4946    0.2139 H   0  0  0  0  0  0  0  0  0  0  0  0
    5.9316    2.0265   -1.3747 H   0  0  0  0  0  0  0  0  0  0  0  0
    7.7725    3.5957   -1.8265 H   0  0  0  0  0  0  0  0  0  0  0  0
    6.4963    2.5459    2.8212 H   0  0  0  0  0  0  0  0  0  0  0  0
    7.0191    4.1552    4.0480 H   0  0  0  0  0  0  0  0  0  0  0  0
    8.1744    2.8010    4.0552 H   0  0  0  0  0  0  0  0  0  0  0  0
   11.4243    5.5869    6.5459 H   0  0  0  0  0  0  0  0  0  0  0  0
   10.2691    6.9411    6.5387 H   0  0  0  0  0  0  0  0  0  0  0  0
    8.8809    5.7657    8.2240 H   0  0  0  0  0  0  0  0  0  0  0  0
   10.0361    4.4116    8.2312 H   0  0  0  0  0  0  0  0  0  0  0  0
   10.4976    5.9844    9.9688 H   0  0  0  0  0  0  0  0  0  0  0  0
    6.8250    5.8870    0.5655 H   0  0  0  0  0  0  0  0  0  0  0  0
    5.8424    8.1027    1.0109 H   0  0  0  0  0  0  0  0  0  0  0  0
   11.5736    7.2366    0.7993 H   0  0  0  0  0  0  0  0  0  0  0  0
   11.1797    6.8829   -0.8971 H   0  0  0  0  0  0  0  0  0  0  0  0
   12.7898    8.8150   -0.5710 H   0  0  0  0  0  0  0  0  0  0  0  0
   11.3197    9.2303   -1.4896 H   0  0  0  0  0  0  0  0  0  0  0  0
   11.5767    9.6175    1.5278 H   0  0  0  0  0  0  0  0  0  0  0  0
   11.9335   10.9001    0.3422 H   0  0  0  0  0  0  0  0  0  0  0  0
    9.6678   10.8271   -0.5339 H   0  0  0  0  0  0  0  0  0  0  0  0
    9.5664   10.9474    1.2363 H   0  0  0  0  0  0  0  0  0  0  0  0
    5.1917    9.9959    0.4323 H   0  0  0  0  0  0  0  0  0  0  0  0
    5.5502    9.8111    2.1659 H   0  0  0  0  0  0  0  0  0  0  0  0
  1  6  2  0  0  0  0
  1  2  1  0  0  0  0
  1 42  1  0  0  0  0
  2  3  2  0  0  0  0
  2 43  1  0  0  0  0
  3  4  1  0  0  0  0
  3 11  1  0  0  0  0
  4  5  2  0  0  0  0
  4 44  1  0  0  0  0
  5  6  1  0  0  0  0
  5 45  1  0  0  0  0
  6  7  1  0  0  0  0
  7  8  1  0  0  0  0
  7  9  1  0  0  0  0
  7 10  1  0  0  0  0
 11 12  1  0  0  0  0
 12 13  1  0  0  0  0
 12 46  1  0  0  0  0
 12 47  1  0  0  0  0
 13 18  2  0  0  0  0
 13 14  1  0  0  0  0
 14 15  2  0  0  0  0
 14 48  1  0  0  0  0
 15 16  1  0  0  0  0
 15 49  1  0  0  0  0
 16 17  2  0  0  0  0
 16 26  1  0  0  0  0
 17 18  1  0  0  0  0
 17 19  1  0  0  0  0
 18 50  1  0  0  0  0
 19 20  1  0  0  0  0
 20 21  1  0  0  0  0
 20 51  1  0  0  0  0
 20 52  1  0  0  0  0
 21 22  3  0  0  0  0
 22 23  1  0  0  0  0
 23 24  1  0  0  0  0
 23 53  1  0  0  0  0
 23 54  1  0  0  0  0
 24 25  1  0  0  0  0
 24 55  1  0  0  0  0
 24 56  1  0  0  0  0
 25 57  1  0  0  0  0
 26 27  1  0  0  0  0
 27 32  2  0  0  0  0
 27 28  1  0  0  0  0
 28 29  2  0  0  0  0
 28 58  1  0  0  0  0
 29 30  1  0  0  0  0
 29 59  1  0  0  0  0
 30 31  2  0  0  0  0
 30 37  1  0  0  0  0
 31 36  1  0  0  0  0
 31 32  1  0  0  0  0
 32 33  1  0  0  0  0
 33 34  1  0  0  0  0
 33 60  1  0  0  0  0
 33 61  1  0  0  0  0
 34 35  1  0  0  0  0
 34 62  1  0  0  0  0
 34 63  1  0  0  0  0
 35 36  1  0  0  0  0
 35 64  1  0  0  0  0
 35 65  1  0  0  0  0
 36 66  1  0  0  0  0
 36 67  1  0  0  0  0
 37 38  1  0  0  0  0
 38 39  1  0  0  0  0
 38 68  1  0  0  0  0
 38 69  1  0  0  0  0
 39 40  2  0  0  0  0
 39 41  1  0  0  0  0
M  CHG  1  41  -1
M  END
$$$$
