CHEMBL124079
 OpenBabel05272217113D

 65 67  0  0  0  0  0  0  0  0999 V2000
   -1.8262   -2.7658    0.6549 C   0  0  0  0  0  0  0  0  0  0  0  0
   -0.4375   -2.1356    0.5308 C   0  0  0  0  0  0  0  0  0  0  0  0
   -0.5712   -0.7080   -0.0028 C   0  0  0  0  0  0  0  0  0  0  0  0
    0.2235   -2.1060    1.8848 C   0  0  0  0  0  0  0  0  0  0  0  0
    1.2777   -2.6924    2.0615 O   0  0  0  0  0  0  0  0  0  0  0  0
   -0.2960   -1.4955    2.8035 O   0  5  0  0  0  0  0  0  0  0  0  0
    0.3576   -2.9086   -0.3705 O   0  0  0  0  0  0  0  0  0  0  0  0
    1.6541   -2.5327   -0.5274 C   0  0  0  0  0  0  0  0  0  0  0  0
    2.1514   -1.4435    0.1733 C   0  0  0  0  0  0  0  0  0  0  0  0
    3.4698   -1.0637    0.0125 C   0  0  0  0  0  0  0  0  0  0  0  0
    4.2935   -1.7678   -0.8463 C   0  0  0  0  0  0  0  0  0  0  0  0
    3.8001   -2.8534   -1.5462 C   0  0  0  0  0  0  0  0  0  0  0  0
    2.4841   -3.2410   -1.3842 C   0  0  0  0  0  0  0  0  0  0  0  0
    5.7312   -1.3510   -1.0202 C   0  0  0  0  0  0  0  0  0  0  0  0
    6.6016   -2.0820    0.0040 C   0  0  0  0  0  0  0  0  0  0  0  0
    7.9993   -1.6768   -0.1651 N   0  0  0  0  0  0  0  0  0  0  0  0
    8.5231   -0.5264    0.5755 C   0  0  0  0  0  0  0  0  0  0  0  0
    7.7287    0.7032    0.2274 C   0  0  0  0  0  0  0  0  0  0  0  0
    8.5895    1.9809    0.2278 C   0  0  0  0  0  0  0  0  0  0  0  0
    9.5779    2.0350    1.4084 C   0  0  0  0  0  0  0  0  0  0  0  0
    8.9606    1.5664    2.6981 C   0  0  0  0  0  0  0  0  0  0  0  0
    9.2754    0.0669    2.8756 C   0  0  0  0  0  0  0  0  0  0  0  0
    8.3915   -0.7822    2.0908 C   0  0  0  0  0  0  0  0  0  0  0  0
    8.8031   -2.3623   -1.0019 C   0  0  0  0  0  0  0  0  0  0  0  0
    8.3476   -3.2612   -1.6823 O   0  0  0  0  0  0  0  0  0  0  0  0
   10.1119   -2.0515   -1.0846 N   0  0  0  0  0  0  0  0  0  0  0  0
   10.9286   -2.7003   -2.0214 C   0  0  0  0  0  0  0  0  0  0  0  0
   10.3575   -3.3961   -3.0775 C   0  0  0  0  0  0  0  0  0  0  0  0
   11.1637   -4.0345   -4.0000 C   0  0  0  0  0  0  0  0  0  0  0  0
   12.5415   -3.9814   -3.8721 C   0  0  0  0  0  0  0  0  0  0  0  0
   13.1150   -3.2886   -2.8195 C   0  0  0  0  0  0  0  0  0  0  0  0
   12.3121   -2.6427   -1.8970 C   0  0  0  0  0  0  0  0  0  0  0  0
   12.8714   -1.9615   -0.8731 F   0  0  0  0  0  0  0  0  0  0  0  0
   13.3273   -4.6071   -4.7756 F   0  0  0  0  0  0  0  0  0  0  0  0
   -2.3382   -2.7088   -0.3057 H   0  0  0  0  0  0  0  0  0  0  0  0
   -1.7262   -3.8098    0.9519 H   0  0  0  0  0  0  0  0  0  0  0  0
   -2.4034   -2.2279    1.4068 H   0  0  0  0  0  0  0  0  0  0  0  0
   -1.0533   -0.0828    0.7487 H   0  0  0  0  0  0  0  0  0  0  0  0
    0.4184   -0.3095   -0.2264 H   0  0  0  0  0  0  0  0  0  0  0  0
   -1.1739   -0.7145   -0.9110 H   0  0  0  0  0  0  0  0  0  0  0  0
    1.5082   -0.8928    0.8437 H   0  0  0  0  0  0  0  0  0  0  0  0
    3.8574   -0.2159    0.5578 H   0  0  0  0  0  0  0  0  0  0  0  0
    4.4454   -3.4016   -2.2167 H   0  0  0  0  0  0  0  0  0  0  0  0
    2.1004   -4.0918   -1.9277 H   0  0  0  0  0  0  0  0  0  0  0  0
    6.0638   -1.6047   -2.0268 H   0  0  0  0  0  0  0  0  0  0  0  0
    5.8184   -0.2751   -0.8692 H   0  0  0  0  0  0  0  0  0  0  0  0
    6.2690   -1.8283    1.0105 H   0  0  0  0  0  0  0  0  0  0  0  0
    6.5144   -3.1580   -0.1471 H   0  0  0  0  0  0  0  0  0  0  0  0
    9.5715   -0.3730    0.3198 H   0  0  0  0  0  0  0  0  0  0  0  0
    7.2921    0.5724   -0.7628 H   0  0  0  0  0  0  0  0  0  0  0  0
    6.9237    0.8200    0.9530 H   0  0  0  0  0  0  0  0  0  0  0  0
    9.1526    2.0257   -0.7044 H   0  0  0  0  0  0  0  0  0  0  0  0
    7.9313    2.8482    0.2804 H   0  0  0  0  0  0  0  0  0  0  0  0
   10.4365    1.4040    1.1787 H   0  0  0  0  0  0  0  0  0  0  0  0
    9.9210    3.0619    1.5343 H   0  0  0  0  0  0  0  0  0  0  0  0
    9.3808    2.1299    3.5312 H   0  0  0  0  0  0  0  0  0  0  0  0
    7.8810    1.7120    2.6615 H   0  0  0  0  0  0  0  0  0  0  0  0
   10.3051   -0.1163    2.5686 H   0  0  0  0  0  0  0  0  0  0  0  0
    9.1715   -0.1933    3.9289 H   0  0  0  0  0  0  0  0  0  0  0  0
    7.3612   -0.5935    2.3925 H   0  0  0  0  0  0  0  0  0  0  0  0
    8.6315   -1.8257    2.2949 H   0  0  0  0  0  0  0  0  0  0  0  0
   10.4888   -1.3789   -0.4960 H   0  0  0  0  0  0  0  0  0  0  0  0
    9.2830   -3.4388   -3.1780 H   0  0  0  0  0  0  0  0  0  0  0  0
   10.7188   -4.5759   -4.8218 H   0  0  0  0  0  0  0  0  0  0  0  0
   14.1898   -3.2487   -2.7213 H   0  0  0  0  0  0  0  0  0  0  0  0
  1  2  1  0  0  0  0
  1 35  1  0  0  0  0
  1 36  1  0  0  0  0
  1 37  1  0  0  0  0
  2  3  1  0  0  0  0
  2  4  1  0  0  0  0
  2  7  1  0  0  0  0
  3 38  1  0  0  0  0
  3 39  1  0  0  0  0
  3 40  1  0  0  0  0
  4  5  2  0  0  0  0
  4  6  1  0  0  0  0
  7  8  1  0  0  0  0
  8 13  2  0  0  0  0
  8  9  1  0  0  0  0
  9 10  2  0  0  0  0
  9 41  1  0  0  0  0
 10 11  1  0  0  0  0
 10 42  1  0  0  0  0
 11 12  2  0  0  0  0
 11 14  1  0  0  0  0
 12 13  1  0  0  0  0
 12 43  1  0  0  0  0
 13 44  1  0  0  0  0
 14 15  1  0  0  0  0
 14 45  1  0  0  0  0
 14 46  1  0  0  0  0
 15 16  1  0  0  0  0
 15 47  1  0  0  0  0
 15 48  1  0  0  0  0
 16 17  1  0  0  0  0
 16 24  1  0  0  0  0
 17 23  1  0  0  0  0
 17 18  1  0  0  0  0
 17 49  1  0  0  0  0
 18 19  1  0  0  0  0
 18 50  1  0  0  0  0
 18 51  1  0  0  0  0
 19 20  1  0  0  0  0
 19 52  1  0  0  0  0
 19 53  1  0  0  0  0
 20 21  1  0  0  0  0
 20 54  1  0  0  0  0
 20 55  1  0  0  0  0
 21 22  1  0  0  0  0
 21 56  1  0  0  0  0
 21 57  1  0  0  0  0
 22 23  1  0  0  0  0
 22 58  1  0  0  0  0
 22 59  1  0  0  0  0
 23 60  1  0  0  0  0
 23 61  1  0  0  0  0
 24 25  2  0  0  0  0
 24 26  1  0  0  0  0
 26 27  1  0  0  0  0
 26 62  1  0  0  0  0
 27 32  2  0  0  0  0
 27 28  1  0  0  0  0
 28 29  2  0  0  0  0
 28 63  1  0  0  0  0
 29 30  1  0  0  0  0
 29 64  1  0  0  0  0
 30 31  2  0  0  0  0
 30 34  1  0  0  0  0
 31 32  1  0  0  0  0
 31 65  1  0  0  0  0
 32 33  1  0  0  0  0
M  CHG  1   6  -1
M  END
$$$$
