CHEMBL393987
 OpenBabel05272217113D

 54 56  0  0  1  0  0  0  0  0999 V2000
   -1.8427    0.8673    0.8534 C   0  0  0  0  0  0  0  0  0  0  0  0
   -1.4844   -0.5905    0.7210 C   0  0  0  0  0  0  0  0  0  0  0  0
   -2.2992   -1.6766    0.7583 C   0  0  0  0  0  0  0  0  0  0  0  0
   -1.7519   -2.9316    0.6138 C   0  0  0  0  0  0  0  0  0  0  0  0
   -0.3961   -3.0423    0.4364 C   0  0  0  0  0  0  0  0  0  0  0  0
    0.1190   -1.3330    0.4670 S   0  0  0  0  0  0  0  0  0  0  0  0
    0.3984   -4.2213    0.2654 C   0  0  0  0  0  0  0  0  0  0  0  0
    1.0498   -5.1879    0.1252 C   0  0  0  0  0  0  0  0  0  0  0  0
    1.8665   -6.3999   -0.0506 C   0  0  1  0  0  0  0  0  0  0  0  0
    1.4073   -7.1411   -1.2798 C   0  0  0  0  0  0  0  0  0  0  0  0
    0.8365   -8.3144   -1.1621 C   0  0  0  0  0  0  0  0  0  0  0  0
    0.4894   -8.8499    0.2031 C   0  0  0  0  0  0  0  0  0  0  0  0
   -0.8216   -9.4178    0.1728 O   0  0  0  0  0  0  0  0  0  0  0  0
   -1.2910   -9.9495    1.3329 C   0  0  0  0  0  0  0  0  0  0  0  0
   -0.5070   -9.9193    2.4769 C   0  0  0  0  0  0  0  0  0  0  0  0
   -0.9836  -10.4598    3.6551 C   0  0  0  0  0  0  0  0  0  0  0  0
   -2.2464  -11.0325    3.6947 C   0  0  0  0  0  0  0  0  0  0  0  0
   -3.0303  -11.0624    2.5511 C   0  0  0  0  0  0  0  0  0  0  0  0
   -2.5557  -10.5170    1.3738 C   0  0  0  0  0  0  0  0  0  0  0  0
   -4.4022  -11.6846    2.5940 C   0  0  0  0  0  0  0  0  0  0  0  0
   -2.7155  -11.5651    4.8546 O   0  0  0  0  0  0  0  0  0  0  0  0
   -1.8544  -11.5001    5.9932 C   0  0  0  0  0  0  0  0  0  0  0  0
   -2.5380  -12.1347    7.1769 C   0  0  0  0  0  0  0  0  0  0  0  0
   -3.6586  -12.5996    7.0566 O   0  0  0  0  0  0  0  0  0  0  0  0
   -1.9703  -12.1832    8.2548 O   0  5  0  0  0  0  0  0  0  0  0  0
    3.3139   -6.0116   -0.2096 C   0  0  0  0  0  0  0  0  0  0  0  0
    3.6983   -5.1898   -1.2526 C   0  0  0  0  0  0  0  0  0  0  0  0
    5.0256   -4.8330   -1.3986 C   0  0  0  0  0  0  0  0  0  0  0  0
    5.9694   -5.2984   -0.5007 C   0  0  0  0  0  0  0  0  0  0  0  0
    5.5843   -6.1207    0.5428 C   0  0  0  0  0  0  0  0  0  0  0  0
    4.2559   -6.4727    0.6910 C   0  0  0  0  0  0  0  0  0  0  0  0
    7.7856   -4.8112   -0.7002 Br  0  0  0  0  0  0  0  0  0  0  0  0
   -0.9399    1.4724    0.7707 H   0  0  0  0  0  0  0  0  0  0  0  0
   -2.5391    1.1436    0.0617 H   0  0  0  0  0  0  0  0  0  0  0  0
   -2.3085    1.0403    1.8236 H   0  0  0  0  0  0  0  0  0  0  0  0
   -3.3632   -1.5572    0.8998 H   0  0  0  0  0  0  0  0  0  0  0  0
   -2.3775   -3.8116    0.6400 H   0  0  0  0  0  0  0  0  0  0  0  0
    1.7564   -7.0421    0.8232 H   0  0  0  0  0  0  0  0  0  0  0  0
    1.5488   -6.7051   -2.2577 H   0  0  0  0  0  0  0  0  0  0  0  0
    0.6148   -8.8978   -2.0435 H   0  0  0  0  0  0  0  0  0  0  0  0
    1.2108   -9.6161    0.4870 H   0  0  0  0  0  0  0  0  0  0  0  0
    0.5169   -8.0379    0.9297 H   0  0  0  0  0  0  0  0  0  0  0  0
    0.4761   -9.4734    2.4462 H   0  0  0  0  0  0  0  0  0  0  0  0
   -0.3730  -10.4369    4.5456 H   0  0  0  0  0  0  0  0  0  0  0  0
   -3.1678  -10.5366    0.4843 H   0  0  0  0  0  0  0  0  0  0  0  0
   -5.1377  -10.9247    2.8581 H   0  0  0  0  0  0  0  0  0  0  0  0
   -4.6438  -12.0995    1.6155 H   0  0  0  0  0  0  0  0  0  0  0  0
   -4.4174  -12.4796    3.3396 H   0  0  0  0  0  0  0  0  0  0  0  0
   -0.9283  -12.0337    5.7793 H   0  0  0  0  0  0  0  0  0  0  0  0
   -1.6293  -10.4578    6.2194 H   0  0  0  0  0  0  0  0  0  0  0  0
    2.9614   -4.8267   -1.9538 H   0  0  0  0  0  0  0  0  0  0  0  0
    5.3259   -4.1913   -2.2137 H   0  0  0  0  0  0  0  0  0  0  0  0
    6.3208   -6.4843    1.2440 H   0  0  0  0  0  0  0  0  0  0  0  0
    3.9545   -7.1114    1.5081 H   0  0  0  0  0  0  0  0  0  0  0  0
  1  2  1  0  0  0  0
  1 33  1  0  0  0  0
  1 34  1  0  0  0  0
  1 35  1  0  0  0  0
  2  6  1  0  0  0  0
  2  3  2  0  0  0  0
  3  4  1  0  0  0  0
  3 36  1  0  0  0  0
  4  5  2  0  0  0  0
  4 37  1  0  0  0  0
  5  6  1  0  0  0  0
  5  7  1  0  0  0  0
  7  8  3  0  0  0  0
  8  9  1  0  0  0  0
  9 10  1  0  0  0  0
  9 26  1  0  0  0  0
  9 38  1  1  0  0  0
 10 11  2  0  0  0  0
 10 39  1  0  0  0  0
 11 12  1  0  0  0  0
 11 40  1  0  0  0  0
 12 13  1  0  0  0  0
 12 41  1  0  0  0  0
 12 42  1  0  0  0  0
 13 14  1  0  0  0  0
 14 19  2  0  0  0  0
 14 15  1  0  0  0  0
 15 16  2  0  0  0  0
 15 43  1  0  0  0  0
 16 17  1  0  0  0  0
 16 44  1  0  0  0  0
 17 18  2  0  0  0  0
 17 21  1  0  0  0  0
 18 19  1  0  0  0  0
 18 20  1  0  0  0  0
 19 45  1  0  0  0  0
 20 46  1  0  0  0  0
 20 47  1  0  0  0  0
 20 48  1  0  0  0  0
 21 22  1  0  0  0  0
 22 23  1  0  0  0  0
 22 49  1  0  0  0  0
 22 50  1  0  0  0  0
 23 24  2  0  0  0  0
 23 25  1  0  0  0  0
 26 31  2  0  0  0  0
 26 27  1  0  0  0  0
 27 28  2  0  0  0  0
 27 51  1  0  0  0  0
 28 29  1  0  0  0  0
 28 52  1  0  0  0  0
 29 30  2  0  0  0  0
 29 32  1  0  0  0  0
 30 31  1  0  0  0  0
 30 53  1  0  0  0  0
 31 54  1  0  0  0  0
M  CHG  1  25  -1
M  END
$$$$
