CHEMBL219817
 OpenBabel05272217113D

 58 61  0  0  1  0  0  0  0  0999 V2000
   -0.3361    0.5369    0.1519 C   0  0  0  0  0  0  0  0  0  0  0  0
   -0.3425   -0.9651    0.0297 C   0  0  0  0  0  0  0  0  0  0  0  0
    0.1024   -1.6485    0.9276 O   0  0  0  0  0  0  0  0  0  0  0  0
   -0.8424   -1.5491   -1.0773 N   0  0  0  0  0  0  0  0  0  0  0  0
   -0.7598   -2.9390   -1.2345 C   0  0  0  0  0  0  0  0  0  0  0  0
   -0.8517   -3.7695   -0.1282 C   0  0  0  0  0  0  0  0  0  0  0  0
   -0.7694   -5.1455   -0.2870 C   0  0  0  0  0  0  0  0  0  0  0  0
   -0.5949   -5.6898   -1.5523 C   0  0  0  0  0  0  0  0  0  0  0  0
   -0.5032   -4.8634   -2.6557 C   0  0  0  0  0  0  0  0  0  0  0  0
   -0.5909   -3.4889   -2.5033 C   0  0  0  0  0  0  0  0  0  0  0  0
   -0.5066   -2.6769   -3.5911 O   0  0  0  0  0  0  0  0  0  0  0  0
   -0.3337   -3.3093   -4.8608 C   0  0  0  0  0  0  0  0  0  0  0  0
   -0.2605   -2.2432   -5.9558 C   0  0  0  0  0  0  0  0  0  0  0  0
   -0.0754   -2.9202   -7.3153 C   0  0  0  0  0  0  0  0  0  0  0  0
   -0.0070   -1.9245   -8.3379 O   0  0  0  0  0  0  0  0  0  0  0  0
    0.1574   -2.3612   -9.6143 C   0  0  0  0  0  0  0  0  0  0  0  0
    0.2454   -3.7204   -9.8786 C   0  0  0  0  0  0  0  0  0  0  0  0
    0.4123   -4.1591  -11.1764 C   0  0  0  0  0  0  0  0  0  0  0  0
    0.4930   -3.2480  -12.2170 C   0  0  0  0  0  0  0  0  0  0  0  0
    0.4057   -1.8930  -11.9562 C   0  0  0  0  0  0  0  0  0  0  0  0
    0.2320   -1.4503  -10.6563 C   0  0  0  0  0  0  0  0  0  0  0  0
    0.5211   -1.1146  -13.2493 C   0  0  0  0  0  0  0  0  0  0  0  0
    1.1235   -2.1073  -14.2660 C   0  0  0  0  0  0  0  0  0  0  0  0
    0.6728   -3.4720  -13.7034 C   0  0  1  0  0  0  0  0  0  0  0  0
   -0.2708   -3.7752  -14.1571 H   0  0  0  0  0  0  0  0  0  0  0  0
    1.7482   -4.5310  -13.9543 C   0  0  0  0  0  0  0  0  0  0  0  0
    1.8114   -4.8436  -15.4272 C   0  0  0  0  0  0  0  0  0  0  0  0
    1.0005   -4.3479  -16.1909 O   0  0  0  0  0  0  0  0  0  0  0  0
    2.6735   -5.5920  -15.8551 O   0  5  0  0  0  0  0  0  0  0  0  0
   -0.8622   -5.9874    0.8319 N   0  0  0  0  0  0  0  0  0  0  0  0
   -0.7922   -7.3464    0.8170 C   0  0  0  0  0  0  0  0  0  0  0  0
   -0.9278   -7.7424    2.1046 C   0  0  0  0  0  0  0  0  0  0  0  0
   -1.0715   -6.6292    2.8321 N   0  0  0  0  0  0  0  0  0  0  0  0
   -1.0229   -5.6082    2.0516 N   0  0  0  0  0  0  0  0  0  0  0  0
    0.5953    0.9306   -0.2553 H   0  0  0  0  0  0  0  0  0  0  0  0
   -1.1785    0.9502   -0.4028 H   0  0  0  0  0  0  0  0  0  0  0  0
   -0.4203    0.8164    1.2020 H   0  0  0  0  0  0  0  0  0  0  0  0
   -1.2595   -1.0071   -1.7653 H   0  0  0  0  0  0  0  0  0  0  0  0
   -0.9867   -3.3460    0.8561 H   0  0  0  0  0  0  0  0  0  0  0  0
   -0.5304   -6.7609   -1.6741 H   0  0  0  0  0  0  0  0  0  0  0  0
   -0.3675   -5.2895   -3.6388 H   0  0  0  0  0  0  0  0  0  0  0  0
    0.5896   -3.8887   -4.8555 H   0  0  0  0  0  0  0  0  0  0  0  0
   -1.1773   -3.9718   -5.0546 H   0  0  0  0  0  0  0  0  0  0  0  0
   -1.1837   -1.6638   -5.9611 H   0  0  0  0  0  0  0  0  0  0  0  0
    0.5831   -1.5807   -5.7620 H   0  0  0  0  0  0  0  0  0  0  0  0
    0.8479   -3.4996   -7.3099 H   0  0  0  0  0  0  0  0  0  0  0  0
   -0.9189   -3.5827   -7.5091 H   0  0  0  0  0  0  0  0  0  0  0  0
    0.1837   -4.4339   -9.0701 H   0  0  0  0  0  0  0  0  0  0  0  0
    0.4807   -5.2172  -11.3817 H   0  0  0  0  0  0  0  0  0  0  0  0
    0.1589   -0.3922  -10.4529 H   0  0  0  0  0  0  0  0  0  0  0  0
   -0.4632   -0.7841  -13.5810 H   0  0  0  0  0  0  0  0  0  0  0  0
    1.1838   -0.2591  -13.1179 H   0  0  0  0  0  0  0  0  0  0  0  0
    0.7092   -1.9424  -15.2607 H   0  0  0  0  0  0  0  0  0  0  0  0
    2.2109   -2.0345  -14.2811 H   0  0  0  0  0  0  0  0  0  0  0  0
    2.7149   -4.1532  -13.6213 H   0  0  0  0  0  0  0  0  0  0  0  0
    1.5020   -5.4372  -13.4009 H   0  0  0  0  0  0  0  0  0  0  0  0
   -0.6565   -7.9804   -0.0467 H   0  0  0  0  0  0  0  0  0  0  0  0
   -0.9215   -8.7579    2.4721 H   0  0  0  0  0  0  0  0  0  0  0  0
  1  2  1  0  0  0  0
  1 35  1  0  0  0  0
  1 36  1  0  0  0  0
  1 37  1  0  0  0  0
  2  3  2  0  0  0  0
  2  4  1  0  0  0  0
  4  5  1  0  0  0  0
  4 38  1  0  0  0  0
  5 10  2  0  0  0  0
  5  6  1  0  0  0  0
  6  7  2  0  0  0  0
  6 39  1  0  0  0  0
  7  8  1  0  0  0  0
  7 30  1  0  0  0  0
  8  9  2  0  0  0  0
  8 40  1  0  0  0  0
  9 10  1  0  0  0  0
  9 41  1  0  0  0  0
 10 11  1  0  0  0  0
 11 12  1  0  0  0  0
 12 13  1  0  0  0  0
 12 42  1  0  0  0  0
 12 43  1  0  0  0  0
 13 14  1  0  0  0  0
 13 44  1  0  0  0  0
 13 45  1  0  0  0  0
 14 15  1  0  0  0  0
 14 46  1  0  0  0  0
 14 47  1  0  0  0  0
 15 16  1  0  0  0  0
 16 21  2  0  0  0  0
 16 17  1  0  0  0  0
 17 18  2  0  0  0  0
 17 48  1  0  0  0  0
 18 19  1  0  0  0  0
 18 49  1  0  0  0  0
 19 24  1  0  0  0  0
 19 20  2  0  0  0  0
 20 21  1  0  0  0  0
 20 22  1  0  0  0  0
 21 50  1  0  0  0  0
 22 23  1  0  0  0  0
 22 51  1  0  0  0  0
 22 52  1  0  0  0  0
 23 24  1  0  0  0  0
 23 53  1  0  0  0  0
 23 54  1  0  0  0  0
 24 25  1  6  0  0  0
 24 26  1  0  0  0  0
 26 27  1  0  0  0  0
 26 55  1  0  0  0  0
 26 56  1  0  0  0  0
 27 28  2  0  0  0  0
 27 29  1  0  0  0  0
 30 34  1  0  0  0  0
 30 31  1  0  0  0  0
 31 32  2  0  0  0  0
 31 57  1  0  0  0  0
 32 33  1  0  0  0  0
 32 58  1  0  0  0  0
 33 34  2  0  0  0  0
M  CHG  1  29  -1
M  END
$$$$
