CHEMBL428037
 OpenBabel05272217113D

 49 51  0  0  0  0  0  0  0  0999 V2000
    0.2695    1.1781   -0.1651 C   0  0  0  0  0  0  0  0  0  0  0  0
    0.1548   -0.3200   -0.0485 C   0  0  0  0  0  0  0  0  0  0  0  0
    0.2038   -1.1069   -1.1830 C   0  0  0  0  0  0  0  0  0  0  0  0
    0.0987   -2.4855   -1.0756 C   0  0  0  0  0  0  0  0  0  0  0  0
   -0.0555   -3.0744    0.1708 C   0  0  0  0  0  0  0  0  0  0  0  0
   -0.1045   -2.2878    1.3049 C   0  0  0  0  0  0  0  0  0  0  0  0
    0.0059   -0.9091    1.1980 C   0  0  0  0  0  0  0  0  0  0  0  0
   -0.0367   -0.1350    2.3152 O   0  0  0  0  0  0  0  0  0  0  0  0
   -0.0641   -0.8123    3.5732 C   0  0  0  0  0  0  0  0  0  0  0  0
    1.1831   -1.6882    3.7080 C   0  0  0  0  0  0  0  0  0  0  0  0
   -0.0898    0.2162    4.7057 C   0  0  0  0  0  0  0  0  0  0  0  0
   -1.2960   -1.6767    3.6516 C   0  0  0  0  0  0  0  0  0  0  0  0
   -2.0780   -1.7097    2.7168 O   0  0  0  0  0  0  0  0  0  0  0  0
   -1.5106   -2.3431    4.6498 O   0  5  0  0  0  0  0  0  0  0  0  0
    0.1465   -3.2601   -2.1923 O   0  0  0  0  0  0  0  0  0  0  0  0
    0.0321   -4.6724   -2.0076 C   0  0  0  0  0  0  0  0  0  0  0  0
    0.1058   -5.3617   -3.3457 C   0  0  0  0  0  0  0  0  0  0  0  0
    1.1652   -5.8121   -3.9792 N   0  0  0  0  0  0  0  0  0  0  0  0
    0.9837   -6.3881   -5.1539 C   0  0  0  0  0  0  0  0  0  0  0  0
   -0.2492   -6.4730   -5.6133 N   0  0  0  0  0  0  0  0  0  0  0  0
   -1.1470   -5.7517   -4.3952 S   0  0  0  0  0  0  0  0  0  0  0  0
    2.1296   -6.9216   -5.9311 C   0  0  0  0  0  0  0  0  0  0  0  0
    3.4238   -6.8258   -5.4237 C   0  0  0  0  0  0  0  0  0  0  0  0
    4.4859   -7.3242   -6.1506 C   0  0  0  0  0  0  0  0  0  0  0  0
    4.2675   -7.9179   -7.3807 C   0  0  0  0  0  0  0  0  0  0  0  0
    2.9848   -8.0157   -7.8892 C   0  0  0  0  0  0  0  0  0  0  0  0
    1.9148   -7.5255   -7.1684 C   0  0  0  0  0  0  0  0  0  0  0  0
    5.4313   -8.4598   -8.1700 C   0  0  0  0  0  0  0  0  0  0  0  0
    5.6470   -9.7979   -7.8236 F   0  0  0  0  0  0  0  0  0  0  0  0
    5.1487   -8.3717   -9.5374 F   0  0  0  0  0  0  0  0  0  0  0  0
    6.5784   -7.7127   -7.8818 F   0  0  0  0  0  0  0  0  0  0  0  0
    1.3185    1.4679   -0.1049 H   0  0  0  0  0  0  0  0  0  0  0  0
   -0.1423    1.5007   -1.1214 H   0  0  0  0  0  0  0  0  0  0  0  0
   -0.2848    1.6492    0.6466 H   0  0  0  0  0  0  0  0  0  0  0  0
    0.3235   -0.6484   -2.1535 H   0  0  0  0  0  0  0  0  0  0  0  0
   -0.1377   -4.1481    0.2544 H   0  0  0  0  0  0  0  0  0  0  0  0
   -0.2253   -2.7462    2.2753 H   0  0  0  0  0  0  0  0  0  0  0  0
    2.0588   -1.0545    3.8484 H   0  0  0  0  0  0  0  0  0  0  0  0
    1.0715   -2.3494    4.5674 H   0  0  0  0  0  0  0  0  0  0  0  0
    1.3075   -2.2849    2.8044 H   0  0  0  0  0  0  0  0  0  0  0  0
   -0.9318    0.8934    4.5624 H   0  0  0  0  0  0  0  0  0  0  0  0
   -0.1955   -0.2979    5.6610 H   0  0  0  0  0  0  0  0  0  0  0  0
    0.8395    0.7858    4.7004 H   0  0  0  0  0  0  0  0  0  0  0  0
    0.8460   -5.0230   -1.3730 H   0  0  0  0  0  0  0  0  0  0  0  0
   -0.9225   -4.9007   -1.5335 H   0  0  0  0  0  0  0  0  0  0  0  0
    3.5956   -6.3621   -4.4635 H   0  0  0  0  0  0  0  0  0  0  0  0
    5.4895   -7.2501   -5.7585 H   0  0  0  0  0  0  0  0  0  0  0  0
    2.8200   -8.4800   -8.8503 H   0  0  0  0  0  0  0  0  0  0  0  0
    0.9132   -7.6064   -7.5643 H   0  0  0  0  0  0  0  0  0  0  0  0
  1  2  1  0  0  0  0
  1 32  1  0  0  0  0
  1 33  1  0  0  0  0
  1 34  1  0  0  0  0
  2  7  2  0  0  0  0
  2  3  1  0  0  0  0
  3  4  2  0  0  0  0
  3 35  1  0  0  0  0
  4  5  1  0  0  0  0
  4 15  1  0  0  0  0
  5  6  2  0  0  0  0
  5 36  1  0  0  0  0
  6  7  1  0  0  0  0
  6 37  1  0  0  0  0
  7  8  1  0  0  0  0
  8  9  1  0  0  0  0
  9 10  1  0  0  0  0
  9 11  1  0  0  0  0
  9 12  1  0  0  0  0
 10 38  1  0  0  0  0
 10 39  1  0  0  0  0
 10 40  1  0  0  0  0
 11 41  1  0  0  0  0
 11 42  1  0  0  0  0
 11 43  1  0  0  0  0
 12 13  2  0  0  0  0
 12 14  1  0  0  0  0
 15 16  1  0  0  0  0
 16 17  1  0  0  0  0
 16 44  1  0  0  0  0
 16 45  1  0  0  0  0
 17 21  1  0  0  0  0
 17 18  2  0  0  0  0
 18 19  1  0  0  0  0
 19 20  2  0  0  0  0
 19 22  1  0  0  0  0
 20 21  1  0  0  0  0
 22 27  2  0  0  0  0
 22 23  1  0  0  0  0
 23 24  2  0  0  0  0
 23 46  1  0  0  0  0
 24 25  1  0  0  0  0
 24 47  1  0  0  0  0
 25 26  2  0  0  0  0
 25 28  1  0  0  0  0
 26 27  1  0  0  0  0
 26 48  1  0  0  0  0
 27 49  1  0  0  0  0
 28 29  1  0  0  0  0
 28 30  1  0  0  0  0
 28 31  1  0  0  0  0
M  CHG  1  14  -1
M  END
$$$$
