CHEMBL119496
 OpenBabel05272217113D

 68 71  0  0  1  0  0  0  0  0999 V2000
   -0.0187    1.5258    0.0104 C   0  0  0  0  0  0  0  0  0  0  0  0
    0.0021   -0.0041    0.0020 C   0  0  0  0  0  0  0  0  0  0  0  0
    0.7421   -0.5109    1.2415 C   0  0  0  0  0  0  0  0  0  0  0  0
    0.7625   -2.0177    1.2333 C   0  0  0  0  0  0  0  0  0  0  0  0
   -0.2013   -2.7230    1.9177 C   0  0  0  0  0  0  0  0  0  0  0  0
   -0.1776   -4.1232    1.9061 C   0  0  0  0  0  0  0  0  0  0  0  0
    0.8262   -4.7958    1.1984 C   0  0  0  0  0  0  0  0  0  0  0  0
    1.7779   -4.0866    0.5225 C   0  0  0  0  0  0  0  0  0  0  0  0
    1.7518   -2.6960    0.5293 C   0  0  0  0  0  0  0  0  0  0  0  0
    2.6976   -1.9989   -0.1488 O   0  0  0  0  0  0  0  0  0  0  0  0
    3.6843   -2.7577   -0.8506 C   0  0  0  0  0  0  0  0  0  0  0  0
    4.6577   -1.8063   -1.5493 C   0  0  0  0  0  0  0  0  0  0  0  0
    5.7142   -2.6187   -2.3007 C   0  0  0  0  0  0  0  0  0  0  0  0
    6.6233   -1.7301   -2.9533 O   0  0  0  0  0  0  0  0  0  0  0  0
    7.6303   -2.2947   -3.6703 C   0  0  0  0  0  0  0  0  0  0  0  0
    7.7378   -3.6758   -3.7490 C   0  0  0  0  0  0  0  0  0  0  0  0
    8.7618   -4.2472   -4.4788 C   0  0  0  0  0  0  0  0  0  0  0  0
    9.6796   -3.4440   -5.1306 C   0  0  0  0  0  0  0  0  0  0  0  0
    9.5749   -2.0676   -5.0534 C   0  0  0  0  0  0  0  0  0  0  0  0
    8.5490   -1.4912   -4.3294 C   0  0  0  0  0  0  0  0  0  0  0  0
   10.5771   -1.1953   -5.7647 C   0  0  1  0  0  0  0  0  0  0  0  0
   12.0043   -1.5904   -5.4121 C   0  0  0  0  0  0  0  0  0  0  0  0
   12.4351   -1.5213   -4.2810 O   0  0  0  0  0  0  0  0  0  0  0  0
   12.7415   -2.0147   -6.4246 N   0  0  0  0  0  0  0  0  0  0  0  0
   12.2868   -2.1010   -7.6885 C   0  0  0  0  0  0  0  0  0  0  0  0
   12.8866   -2.4768   -8.6770 O   0  0  0  0  0  0  0  0  0  0  0  0
   10.5959   -1.5349   -7.5743 S   0  0  0  0  0  0  0  0  0  0  0  0
   -1.2018   -4.8834    2.6341 C   0  0  0  0  0  0  0  0  0  0  0  0
   -2.0701   -4.2987    3.2467 O   0  0  0  0  0  0  0  0  0  0  0  0
   -1.1739   -6.3901    2.6199 C   0  0  0  0  0  0  0  0  0  0  0  0
   -1.8922   -6.9017    1.3696 C   0  0  0  0  0  0  0  0  0  0  0  0
   -1.8639   -8.4314    1.3552 C   0  0  0  0  0  0  0  0  0  0  0  0
   -2.5689   -8.9663    2.6033 C   0  0  0  0  0  0  0  0  0  0  0  0
   -1.8505   -8.4547    3.8535 C   0  0  0  0  0  0  0  0  0  0  0  0
   -1.8788   -6.9250    3.8680 C   0  0  0  0  0  0  0  0  0  0  0  0
    1.0039    1.9031    0.0027 H   0  0  0  0  0  0  0  0  0  0  0  0
   -0.5459    1.8868   -0.8726 H   0  0  0  0  0  0  0  0  0  0  0  0
   -0.5289    1.8773    0.9072 H   0  0  0  0  0  0  0  0  0  0  0  0
   -1.0205   -0.3814    0.0098 H   0  0  0  0  0  0  0  0  0  0  0  0
    0.5123   -0.3556   -0.8948 H   0  0  0  0  0  0  0  0  0  0  0  0
    1.7647   -0.1336    1.2338 H   0  0  0  0  0  0  0  0  0  0  0  0
    0.2319   -0.1594    2.1383 H   0  0  0  0  0  0  0  0  0  0  0  0
   -0.9727   -2.1985    2.4620 H   0  0  0  0  0  0  0  0  0  0  0  0
    0.8481   -5.8756    1.1873 H   0  0  0  0  0  0  0  0  0  0  0  0
    2.5513   -4.6075   -0.0223 H   0  0  0  0  0  0  0  0  0  0  0  0
    4.2312   -3.3833   -0.1451 H   0  0  0  0  0  0  0  0  0  0  0  0
    3.1967   -3.3888   -1.5936 H   0  0  0  0  0  0  0  0  0  0  0  0
    4.1109   -1.1806   -2.2547 H   0  0  0  0  0  0  0  0  0  0  0  0
    5.1453   -1.1752   -0.8062 H   0  0  0  0  0  0  0  0  0  0  0  0
    6.2610   -3.2444   -1.5952 H   0  0  0  0  0  0  0  0  0  0  0  0
    5.2266   -3.2498   -3.0437 H   0  0  0  0  0  0  0  0  0  0  0  0
    7.0215   -4.3035   -3.2397 H   0  0  0  0  0  0  0  0  0  0  0  0
    8.8461   -5.3221   -4.5400 H   0  0  0  0  0  0  0  0  0  0  0  0
   10.4796   -3.8926   -5.7008 H   0  0  0  0  0  0  0  0  0  0  0  0
    8.4651   -0.4159   -4.2731 H   0  0  0  0  0  0  0  0  0  0  0  0
   10.3950   -0.1401   -5.5609 H   0  0  0  0  0  0  0  0  0  0  0  0
   13.6583   -2.2771   -6.2471 H   0  0  0  0  0  0  0  0  0  0  0  0
   -0.1397   -6.7343    2.6111 H   0  0  0  0  0  0  0  0  0  0  0  0
   -2.9264   -6.5576    1.3784 H   0  0  0  0  0  0  0  0  0  0  0  0
   -1.3900   -6.5206    0.4805 H   0  0  0  0  0  0  0  0  0  0  0  0
   -2.3757   -8.7959    0.4645 H   0  0  0  0  0  0  0  0  0  0  0  0
   -0.8297   -8.7756    1.3464 H   0  0  0  0  0  0  0  0  0  0  0  0
   -3.6031   -8.6222    2.6121 H   0  0  0  0  0  0  0  0  0  0  0  0
   -2.5487  -10.0561    2.5930 H   0  0  0  0  0  0  0  0  0  0  0  0
   -2.3527   -8.8358    4.7427 H   0  0  0  0  0  0  0  0  0  0  0  0
   -0.8163   -8.7989    3.8448 H   0  0  0  0  0  0  0  0  0  0  0  0
   -1.3670   -6.5606    4.7586 H   0  0  0  0  0  0  0  0  0  0  0  0
   -2.9130   -6.5809    3.8767 H   0  0  0  0  0  0  0  0  0  0  0  0
  1  2  1  0  0  0  0
  1 36  1  0  0  0  0
  1 37  1  0  0  0  0
  1 38  1  0  0  0  0
  2  3  1  0  0  0  0
  2 39  1  0  0  0  0
  2 40  1  0  0  0  0
  3  4  1  0  0  0  0
  3 41  1  0  0  0  0
  3 42  1  0  0  0  0
  4  9  2  0  0  0  0
  4  5  1  0  0  0  0
  5  6  2  0  0  0  0
  5 43  1  0  0  0  0
  6  7  1  0  0  0  0
  6 28  1  0  0  0  0
  7  8  2  0  0  0  0
  7 44  1  0  0  0  0
  8  9  1  0  0  0  0
  8 45  1  0  0  0  0
  9 10  1  0  0  0  0
 10 11  1  0  0  0  0
 11 12  1  0  0  0  0
 11 46  1  0  0  0  0
 11 47  1  0  0  0  0
 12 13  1  0  0  0  0
 12 48  1  0  0  0  0
 12 49  1  0  0  0  0
 13 14  1  0  0  0  0
 13 50  1  0  0  0  0
 13 51  1  0  0  0  0
 14 15  1  0  0  0  0
 15 20  2  0  0  0  0
 15 16  1  0  0  0  0
 16 17  2  0  0  0  0
 16 52  1  0  0  0  0
 17 18  1  0  0  0  0
 17 53  1  0  0  0  0
 18 19  2  0  0  0  0
 18 54  1  0  0  0  0
 19 20  1  0  0  0  0
 19 21  1  0  0  0  0
 20 55  1  0  0  0  0
 21 27  1  0  0  0  0
 21 22  1  0  0  0  0
 21 56  1  1  0  0  0
 22 23  2  0  0  0  0
 22 24  1  0  0  0  0
 24 25  1  0  0  0  0
 24 57  1  0  0  0  0
 25 26  2  0  0  0  0
 25 27  1  0  0  0  0
 28 29  2  0  0  0  0
 28 30  1  0  0  0  0
 30 35  1  0  0  0  0
 30 31  1  0  0  0  0
 30 58  1  0  0  0  0
 31 32  1  0  0  0  0
 31 59  1  0  0  0  0
 31 60  1  0  0  0  0
 32 33  1  0  0  0  0
 32 61  1  0  0  0  0
 32 62  1  0  0  0  0
 33 34  1  0  0  0  0
 33 63  1  0  0  0  0
 33 64  1  0  0  0  0
 34 35  1  0  0  0  0
 34 65  1  0  0  0  0
 34 66  1  0  0  0  0
 35 67  1  0  0  0  0
 35 68  1  0  0  0  0
M  END
$$$$
