CHEMBL120748
 OpenBabel05272217113D

 50 51  0  0  1  0  0  0  0  0999 V2000
   -0.0187    1.5258    0.0104 C   0  0  0  0  0  0  0  0  0  0  0  0
    0.0021   -0.0041    0.0020 C   0  0  0  0  0  0  0  0  0  0  0  0
    0.7182   -0.4975   -1.2568 C   0  0  1  0  0  0  0  0  0  0  0  0
    0.8493   -2.0210   -1.2049 C   0  0  0  0  0  0  0  0  0  0  0  0
    1.6611   -2.4957   -2.3824 C   0  0  0  0  0  0  0  0  0  0  0  0
    1.0310   -2.8158   -3.5706 C   0  0  0  0  0  0  0  0  0  0  0  0
    1.7713   -3.2517   -4.6537 C   0  0  0  0  0  0  0  0  0  0  0  0
    3.1481   -3.3682   -4.5499 C   0  0  0  0  0  0  0  0  0  0  0  0
    3.7825   -3.0456   -3.3541 C   0  0  0  0  0  0  0  0  0  0  0  0
    3.0350   -2.6047   -2.2739 C   0  0  0  0  0  0  0  0  0  0  0  0
    5.1335   -3.1584   -3.2474 O   0  0  0  0  0  0  0  0  0  0  0  0
    5.7163   -2.8100   -1.9900 C   0  0  0  0  0  0  0  0  0  0  0  0
    7.2329   -2.9990   -2.0609 C   0  0  0  0  0  0  0  0  0  0  0  0
    7.8475   -2.6316   -0.7349 C   0  0  0  0  0  0  0  0  0  0  0  0
    8.2479   -1.3303   -0.4955 C   0  0  0  0  0  0  0  0  0  0  0  0
    8.8116   -0.9933    0.7208 C   0  0  0  0  0  0  0  0  0  0  0  0
    8.9745   -1.9574    1.6980 C   0  0  0  0  0  0  0  0  0  0  0  0
    8.5733   -3.2585    1.4589 C   0  0  0  0  0  0  0  0  0  0  0  0
    8.0056   -3.5946    0.2442 C   0  0  0  0  0  0  0  0  0  0  0  0
    9.5900   -1.5902    3.0236 C   0  0  0  0  0  0  0  0  0  0  0  0
    8.5837   -1.1947    3.9114 F   0  0  0  0  0  0  0  0  0  0  0  0
   10.2649   -2.6980    3.5473 F   0  0  0  0  0  0  0  0  0  0  0  0
   10.4927   -0.5368    2.8428 F   0  0  0  0  0  0  0  0  0  0  0  0
    3.8778   -3.7973   -5.6143 O   0  0  0  0  0  0  0  0  0  0  0  0
    3.1596   -4.1109   -6.8092 C   0  0  0  0  0  0  0  0  0  0  0  0
   -0.0771   -0.1029   -2.4745 C   0  0  0  0  0  0  0  0  0  0  0  0
   -1.1200    0.5157   -2.3473 O   0  0  0  0  0  0  0  0  0  0  0  0
    0.3224   -0.4021   -3.5868 O   0  5  0  0  0  0  0  0  0  0  0  0
    1.0039    1.9031    0.0027 H   0  0  0  0  0  0  0  0  0  0  0  0
   -0.5459    1.8868   -0.8726 H   0  0  0  0  0  0  0  0  0  0  0  0
   -0.5289    1.8773    0.9072 H   0  0  0  0  0  0  0  0  0  0  0  0
    0.5293   -0.3651    0.8851 H   0  0  0  0  0  0  0  0  0  0  0  0
   -1.0205   -0.3814    0.0098 H   0  0  0  0  0  0  0  0  0  0  0  0
    1.7103   -0.0491   -1.3098 H   0  0  0  0  0  0  0  0  0  0  0  0
    1.3468   -2.3116   -0.2797 H   0  0  0  0  0  0  0  0  0  0  0  0
   -0.1422   -2.4724   -1.2416 H   0  0  0  0  0  0  0  0  0  0  0  0
   -0.0421   -2.7254   -3.6528 H   0  0  0  0  0  0  0  0  0  0  0  0
    1.2765   -3.5018   -5.5805 H   0  0  0  0  0  0  0  0  0  0  0  0
    3.5252   -2.3501   -1.3459 H   0  0  0  0  0  0  0  0  0  0  0  0
    5.4903   -1.7685   -1.7609 H   0  0  0  0  0  0  0  0  0  0  0  0
    5.3063   -3.4509   -1.2095 H   0  0  0  0  0  0  0  0  0  0  0  0
    7.4589   -4.0404   -2.2900 H   0  0  0  0  0  0  0  0  0  0  0  0
    7.6428   -2.3580   -2.8414 H   0  0  0  0  0  0  0  0  0  0  0  0
    8.1206   -0.5771   -1.2590 H   0  0  0  0  0  0  0  0  0  0  0  0
    9.1251    0.0232    0.9075 H   0  0  0  0  0  0  0  0  0  0  0  0
    8.7009   -4.0118    2.2222 H   0  0  0  0  0  0  0  0  0  0  0  0
    7.6887   -4.6103    0.0588 H   0  0  0  0  0  0  0  0  0  0  0  0
    3.8590   -4.4397   -7.5778 H   0  0  0  0  0  0  0  0  0  0  0  0
    2.4440   -4.9072   -6.6046 H   0  0  0  0  0  0  0  0  0  0  0  0
    2.6279   -3.2251   -7.1566 H   0  0  0  0  0  0  0  0  0  0  0  0
  1  2  1  0  0  0  0
  1 29  1  0  0  0  0
  1 30  1  0  0  0  0
  1 31  1  0  0  0  0
  2  3  1  0  0  0  0
  2 32  1  0  0  0  0
  2 33  1  0  0  0  0
  3  4  1  0  0  0  0
  3 26  1  0  0  0  0
  3 34  1  6  0  0  0
  4  5  1  0  0  0  0
  4 35  1  0  0  0  0
  4 36  1  0  0  0  0
  5 10  2  0  0  0  0
  5  6  1  0  0  0  0
  6  7  2  0  0  0  0
  6 37  1  0  0  0  0
  7  8  1  0  0  0  0
  7 38  1  0  0  0  0
  8  9  2  0  0  0  0
  8 24  1  0  0  0  0
  9 10  1  0  0  0  0
  9 11  1  0  0  0  0
 10 39  1  0  0  0  0
 11 12  1  0  0  0  0
 12 13  1  0  0  0  0
 12 40  1  0  0  0  0
 12 41  1  0  0  0  0
 13 14  1  0  0  0  0
 13 42  1  0  0  0  0
 13 43  1  0  0  0  0
 14 19  2  0  0  0  0
 14 15  1  0  0  0  0
 15 16  2  0  0  0  0
 15 44  1  0  0  0  0
 16 17  1  0  0  0  0
 16 45  1  0  0  0  0
 17 18  2  0  0  0  0
 17 20  1  0  0  0  0
 18 19  1  0  0  0  0
 18 46  1  0  0  0  0
 19 47  1  0  0  0  0
 20 21  1  0  0  0  0
 20 22  1  0  0  0  0
 20 23  1  0  0  0  0
 24 25  1  0  0  0  0
 25 48  1  0  0  0  0
 25 49  1  0  0  0  0
 25 50  1  0  0  0  0
 26 27  2  0  0  0  0
 26 28  1  0  0  0  0
M  CHG  1  28  -1
M  END
$$$$
