CHEMBL367019
 OpenBabel05272217113D

 59 62  0  0  0  0  0  0  0  0999 V2000
   -0.0187    1.5258    0.0104 C   0  0  0  0  0  0  0  0  0  0  0  0
    0.0021   -0.0041    0.0020 C   0  0  0  0  0  0  0  0  0  0  0  0
    0.7182   -0.4975   -1.2568 C   0  0  0  0  0  0  0  0  0  0  0  0
    0.7386   -2.0043   -1.2651 C   0  0  0  0  0  0  0  0  0  0  0  0
    1.7874   -2.6879   -0.6752 C   0  0  0  0  0  0  0  0  0  0  0  0
    1.8132   -4.0802   -0.6789 C   0  0  0  0  0  0  0  0  0  0  0  0
    0.8034   -4.7889   -1.2649 C   0  0  0  0  0  0  0  0  0  0  0  0
   -0.2620   -4.1157   -1.8639 C   0  0  0  0  0  0  0  0  0  0  0  0
   -0.2974   -2.7119   -1.8594 C   0  0  0  0  0  0  0  0  0  0  0  0
   -1.4279   -2.3376   -2.4927 O   0  0  0  0  0  0  0  0  0  0  0  0
   -2.1386   -3.4862   -2.9085 N   0  0  0  0  0  0  0  0  0  0  0  0
   -1.4782   -4.5594   -2.5636 C   0  0  0  0  0  0  0  0  0  0  0  0
   -1.8857   -5.9626   -2.8160 C   0  0  0  0  0  0  0  0  0  0  0  0
   -0.9213   -6.9362   -3.0707 C   0  0  0  0  0  0  0  0  0  0  0  0
   -1.3065   -8.2406   -3.3049 C   0  0  0  0  0  0  0  0  0  0  0  0
   -2.6468   -8.5825   -3.2873 C   0  0  0  0  0  0  0  0  0  0  0  0
   -3.6083   -7.6205   -3.0351 C   0  0  0  0  0  0  0  0  0  0  0  0
   -3.2344   -6.3141   -2.7938 C   0  0  0  0  0  0  0  0  0  0  0  0
    2.7988   -1.9961   -0.0890 O   0  0  0  0  0  0  0  0  0  0  0  0
    3.8511   -2.7613    0.5018 C   0  0  0  0  0  0  0  0  0  0  0  0
    4.8908   -1.8162    1.1074 C   0  0  0  0  0  0  0  0  0  0  0  0
    6.0176   -2.6355    1.7400 C   0  0  0  0  0  0  0  0  0  0  0  0
    7.2503   -1.5150    2.4580 S   0  0  0  0  0  0  0  0  0  0  0  0
    8.4646   -2.5961    3.1373 C   0  0  0  0  0  0  0  0  0  0  0  0
    8.3120   -3.9726    3.0258 C   0  0  0  0  0  0  0  0  0  0  0  0
    9.2658   -4.8171    3.5589 C   0  0  0  0  0  0  0  0  0  0  0  0
   10.3722   -4.2946    4.2038 C   0  0  0  0  0  0  0  0  0  0  0  0
   10.5280   -2.9252    4.3175 C   0  0  0  0  0  0  0  0  0  0  0  0
    9.5808   -2.0737    3.7812 C   0  0  0  0  0  0  0  0  0  0  0  0
    9.7807   -0.3547    3.9173 Cl  0  0  0  0  0  0  0  0  0  0  0  0
   11.4103   -5.2199    4.7844 C   0  0  0  0  0  0  0  0  0  0  0  0
   12.4642   -5.5070    3.7462 C   0  0  0  0  0  0  0  0  0  0  0  0
   12.3802   -5.0067    2.6376 O   0  0  0  0  0  0  0  0  0  0  0  0
   13.4010   -6.2397    4.0150 O   0  5  0  0  0  0  0  0  0  0  0  0
    1.0039    1.9031    0.0027 H   0  0  0  0  0  0  0  0  0  0  0  0
   -0.5459    1.8868   -0.8726 H   0  0  0  0  0  0  0  0  0  0  0  0
   -0.5289    1.8773    0.9072 H   0  0  0  0  0  0  0  0  0  0  0  0
    0.5293   -0.3651    0.8851 H   0  0  0  0  0  0  0  0  0  0  0  0
   -1.0205   -0.3814    0.0098 H   0  0  0  0  0  0  0  0  0  0  0  0
    0.1910   -0.1364   -2.1398 H   0  0  0  0  0  0  0  0  0  0  0  0
    1.7408   -0.1202   -1.2645 H   0  0  0  0  0  0  0  0  0  0  0  0
    2.6370   -4.6028   -0.2158 H   0  0  0  0  0  0  0  0  0  0  0  0
    0.8297   -5.8686   -1.2650 H   0  0  0  0  0  0  0  0  0  0  0  0
    0.1254   -6.6703   -3.0850 H   0  0  0  0  0  0  0  0  0  0  0  0
   -0.5602   -8.9957   -3.5027 H   0  0  0  0  0  0  0  0  0  0  0  0
   -2.9437   -9.6044   -3.4715 H   0  0  0  0  0  0  0  0  0  0  0  0
   -4.6532   -7.8931   -3.0229 H   0  0  0  0  0  0  0  0  0  0  0  0
   -3.9856   -5.5648   -2.5922 H   0  0  0  0  0  0  0  0  0  0  0  0
    3.4410   -3.3997    1.2843 H   0  0  0  0  0  0  0  0  0  0  0  0
    4.3233   -3.3798   -0.2614 H   0  0  0  0  0  0  0  0  0  0  0  0
    5.3010   -1.1778    0.3249 H   0  0  0  0  0  0  0  0  0  0  0  0
    4.4187   -1.1977    1.8707 H   0  0  0  0  0  0  0  0  0  0  0  0
    5.6074   -3.2739    2.5225 H   0  0  0  0  0  0  0  0  0  0  0  0
    6.4897   -3.2540    0.9768 H   0  0  0  0  0  0  0  0  0  0  0  0
    7.4481   -4.3818    2.5231 H   0  0  0  0  0  0  0  0  0  0  0  0
    9.1475   -5.8871    3.4724 H   0  0  0  0  0  0  0  0  0  0  0  0
   11.3930   -2.5207    4.8220 H   0  0  0  0  0  0  0  0  0  0  0  0
   11.8732   -4.7483    5.6513 H   0  0  0  0  0  0  0  0  0  0  0  0
   10.9360   -6.1530    5.0884 H   0  0  0  0  0  0  0  0  0  0  0  0
  1  2  1  0  0  0  0
  1 35  1  0  0  0  0
  1 36  1  0  0  0  0
  1 37  1  0  0  0  0
  2  3  1  0  0  0  0
  2 38  1  0  0  0  0
  2 39  1  0  0  0  0
  3  4  1  0  0  0  0
  3 40  1  0  0  0  0
  3 41  1  0  0  0  0
  4  9  2  0  0  0  0
  4  5  1  0  0  0  0
  5  6  2  0  0  0  0
  5 19  1  0  0  0  0
  6  7  1  0  0  0  0
  6 42  1  0  0  0  0
  7  8  2  0  0  0  0
  7 43  1  0  0  0  0
  8 12  1  0  0  0  0
  8  9  1  0  0  0  0
  9 10  1  0  0  0  0
 10 11  1  0  0  0  0
 11 12  2  0  0  0  0
 12 13  1  0  0  0  0
 13 18  2  0  0  0  0
 13 14  1  0  0  0  0
 14 15  2  0  0  0  0
 14 44  1  0  0  0  0
 15 16  1  0  0  0  0
 15 45  1  0  0  0  0
 16 17  2  0  0  0  0
 16 46  1  0  0  0  0
 17 18  1  0  0  0  0
 17 47  1  0  0  0  0
 18 48  1  0  0  0  0
 19 20  1  0  0  0  0
 20 21  1  0  0  0  0
 20 49  1  0  0  0  0
 20 50  1  0  0  0  0
 21 22  1  0  0  0  0
 21 51  1  0  0  0  0
 21 52  1  0  0  0  0
 22 23  1  0  0  0  0
 22 53  1  0  0  0  0
 22 54  1  0  0  0  0
 23 24  1  0  0  0  0
 24 29  2  0  0  0  0
 24 25  1  0  0  0  0
 25 26  2  0  0  0  0
 25 55  1  0  0  0  0
 26 27  1  0  0  0  0
 26 56  1  0  0  0  0
 27 28  2  0  0  0  0
 27 31  1  0  0  0  0
 28 29  1  0  0  0  0
 28 57  1  0  0  0  0
 29 30  1  0  0  0  0
 31 32  1  0  0  0  0
 31 58  1  0  0  0  0
 31 59  1  0  0  0  0
 32 33  2  0  0  0  0
 32 34  1  0  0  0  0
M  CHG  1  34  -1
M  END
$$$$
