CHEMBL426327
 OpenBabel05272217113D

 46 48  0  0  0  0  0  0  0  0999 V2000
   -0.1535    1.5666    0.3345 C   0  0  0  0  0  0  0  0  0  0  0  0
   -0.0475    0.0746    0.1506 C   0  0  0  0  0  0  0  0  0  0  0  0
   -1.0817   -0.8139    0.2104 C   0  0  0  0  0  0  0  0  0  0  0  0
   -0.5088   -2.1479   -0.0277 C   0  0  0  0  0  0  0  0  0  0  0  0
    0.7772   -1.9827   -0.2075 N   0  0  0  0  0  0  0  0  0  0  0  0
    1.0735   -0.6044   -0.1044 O   0  0  0  0  0  0  0  0  0  0  0  0
   -1.2468   -3.4334   -0.0578 C   0  0  0  0  0  0  0  0  0  0  0  0
   -2.2750   -3.6293   -0.9799 C   0  0  0  0  0  0  0  0  0  0  0  0
   -2.9585   -4.8296   -1.0031 C   0  0  0  0  0  0  0  0  0  0  0  0
   -2.6252   -5.8358   -0.1147 C   0  0  0  0  0  0  0  0  0  0  0  0
   -1.6071   -5.6477    0.8023 C   0  0  0  0  0  0  0  0  0  0  0  0
   -0.9121   -4.4542    0.8320 C   0  0  0  0  0  0  0  0  0  0  0  0
    0.3703   -4.2225    1.9789 Cl  0  0  0  0  0  0  0  0  0  0  0  0
   -2.6952   -2.3673   -2.0955 Cl  0  0  0  0  0  0  0  0  0  0  0  0
   -2.4961   -0.4986    0.4647 C   0  0  0  0  0  0  0  0  0  0  0  0
   -3.2138   -0.1445   -0.4501 O   0  0  0  0  0  0  0  0  0  0  0  0
   -2.9960   -0.6025    1.7120 O   0  0  0  0  0  0  0  0  0  0  0  0
   -4.3973   -0.3720    1.8706 C   0  0  0  0  0  0  0  0  0  0  0  0
   -4.7871   -0.5869    3.3344 C   0  0  0  0  0  0  0  0  0  0  0  0
   -4.1474    0.3991    4.1473 O   0  0  0  0  0  0  0  0  0  0  0  0
   -4.3901    0.3491    5.4835 C   0  0  0  0  0  0  0  0  0  0  0  0
   -5.2222   -0.6325    6.0024 C   0  0  0  0  0  0  0  0  0  0  0  0
   -5.4668   -0.6815    7.3610 C   0  0  0  0  0  0  0  0  0  0  0  0
   -4.8832    0.2467    8.2037 C   0  0  0  0  0  0  0  0  0  0  0  0
   -4.0542    1.2260    7.6891 C   0  0  0  0  0  0  0  0  0  0  0  0
   -3.8017    1.2758    6.3316 C   0  0  0  0  0  0  0  0  0  0  0  0
   -2.9092    2.3207    5.7820 N   0  3  0  0  0  0  0  0  0  0  0  0
   -2.3967    3.1281    6.5217 O   0  0  0  0  0  0  0  0  0  0  0  0
   -2.6926    2.3668    4.5935 O   0  5  0  0  0  0  0  0  0  0  0  0
   -5.1519    0.1909    9.6855 C   0  0  0  0  0  0  0  0  0  0  0  0
   -6.0128   -0.8761    9.9635 F   0  0  0  0  0  0  0  0  0  0  0  0
   -3.9463    0.0084   10.3715 F   0  0  0  0  0  0  0  0  0  0  0  0
   -5.7459    1.3888   10.0972 F   0  0  0  0  0  0  0  0  0  0  0  0
    0.8333    2.0169    0.2277 H   0  0  0  0  0  0  0  0  0  0  0  0
   -0.8245    1.9788   -0.4192 H   0  0  0  0  0  0  0  0  0  0  0  0
   -0.5462    1.7832    1.3280 H   0  0  0  0  0  0  0  0  0  0  0  0
   -3.7550   -4.9824   -1.7163 H   0  0  0  0  0  0  0  0  0  0  0  0
   -3.1625   -6.7724   -0.1368 H   0  0  0  0  0  0  0  0  0  0  0  0
   -1.3521   -6.4370    1.4939 H   0  0  0  0  0  0  0  0  0  0  0  0
   -4.6326    0.6514    1.5784 H   0  0  0  0  0  0  0  0  0  0  0  0
   -4.9533   -1.0666    1.2409 H   0  0  0  0  0  0  0  0  0  0  0  0
   -5.8684   -0.4984    3.4393 H   0  0  0  0  0  0  0  0  0  0  0  0
   -4.4713   -1.5805    3.6524 H   0  0  0  0  0  0  0  0  0  0  0  0
   -5.6784   -1.3574    5.3447 H   0  0  0  0  0  0  0  0  0  0  0  0
   -6.1147   -1.4451    7.7653 H   0  0  0  0  0  0  0  0  0  0  0  0
   -3.5999    1.9500    8.3493 H   0  0  0  0  0  0  0  0  0  0  0  0
  1  2  1  0  0  0  0
  1 34  1  0  0  0  0
  1 35  1  0  0  0  0
  1 36  1  0  0  0  0
  2  6  1  0  0  0  0
  2  3  2  0  0  0  0
  3  4  1  0  0  0  0
  3 15  1  0  0  0  0
  4  5  2  0  0  0  0
  4  7  1  0  0  0  0
  5  6  1  0  0  0  0
  7 12  2  0  0  0  0
  7  8  1  0  0  0  0
  8  9  2  0  0  0  0
  8 14  1  0  0  0  0
  9 10  1  0  0  0  0
  9 37  1  0  0  0  0
 10 11  2  0  0  0  0
 10 38  1  0  0  0  0
 11 12  1  0  0  0  0
 11 39  1  0  0  0  0
 12 13  1  0  0  0  0
 15 16  2  0  0  0  0
 15 17  1  0  0  0  0
 17 18  1  0  0  0  0
 18 19  1  0  0  0  0
 18 40  1  0  0  0  0
 18 41  1  0  0  0  0
 19 20  1  0  0  0  0
 19 42  1  0  0  0  0
 19 43  1  0  0  0  0
 20 21  1  0  0  0  0
 21 26  2  0  0  0  0
 21 22  1  0  0  0  0
 22 23  2  0  0  0  0
 22 44  1  0  0  0  0
 23 24  1  0  0  0  0
 23 45  1  0  0  0  0
 24 25  2  0  0  0  0
 24 30  1  0  0  0  0
 25 26  1  0  0  0  0
 25 46  1  0  0  0  0
 26 27  1  0  0  0  0
 27 28  2  0  0  0  0
 27 29  1  0  0  0  0
 30 31  1  0  0  0  0
 30 32  1  0  0  0  0
 30 33  1  0  0  0  0
M  CHG  2  27   1  29  -1
M  END
$$$$
