CHEMBL220124
 OpenBabel05272217113D

 55 58  0  0  1  0  0  0  0  0999 V2000
    1.0716    1.5554    0.8251 C   0  0  0  0  0  0  0  0  0  0  0  0
    1.0017    0.1324    0.7146 O   0  0  0  0  0  0  0  0  0  0  0  0
   -0.2267   -0.4106    0.5009 C   0  0  0  0  0  0  0  0  0  0  0  0
   -1.3357    0.4083    0.3947 C   0  0  0  0  0  0  0  0  0  0  0  0
   -2.5950   -0.1524    0.1755 C   0  0  0  0  0  0  0  0  0  0  0  0
   -2.7294   -1.5372    0.0643 C   0  0  0  0  0  0  0  0  0  0  0  0
   -1.6193   -2.3488    0.1712 C   0  0  0  0  0  0  0  0  0  0  0  0
   -0.3669   -1.7915    0.3833 C   0  0  0  0  0  0  0  0  0  0  0  0
    0.7252   -2.5950    0.4823 O   0  0  0  0  0  0  0  0  0  0  0  0
    0.5096   -4.0016    0.3522 C   0  0  0  0  0  0  0  0  0  0  0  0
    1.8441   -4.7371    0.4906 C   0  0  0  0  0  0  0  0  0  0  0  0
    1.6132   -6.2432    0.3513 C   0  0  0  0  0  0  0  0  0  0  0  0
    2.8596   -6.9301    0.4805 O   0  0  0  0  0  0  0  0  0  0  0  0
    2.8305   -8.2851    0.3806 C   0  0  0  0  0  0  0  0  0  0  0  0
    1.6283   -8.9405    0.1570 C   0  0  0  0  0  0  0  0  0  0  0  0
    1.6039  -10.3167    0.0563 C   0  0  0  0  0  0  0  0  0  0  0  0
    2.7748  -11.0471    0.1780 C   0  0  0  0  0  0  0  0  0  0  0  0
    3.9741  -10.3963    0.4010 C   0  0  0  0  0  0  0  0  0  0  0  0
    4.0026   -9.0157    0.4962 C   0  0  0  0  0  0  0  0  0  0  0  0
    5.0957  -11.4085    0.4959 C   0  0  0  0  0  0  0  0  0  0  0  0
    4.3978  -12.7626    0.7439 C   0  0  0  0  0  0  0  0  0  0  0  0
    3.0092  -12.5411    0.1077 C   0  0  1  0  0  0  0  0  0  0  0  0
    3.0109  -12.8752   -0.9299 H   0  0  0  0  0  0  0  0  0  0  0  0
    1.9355  -13.2850    0.9043 C   0  0  0  0  0  0  0  0  0  0  0  0
    2.1026  -14.7698    0.7078 C   0  0  0  0  0  0  0  0  0  0  0  0
    2.9284  -15.1908   -0.0841 O   0  0  0  0  0  0  0  0  0  0  0  0
    1.4119  -15.5500    1.3408 O   0  5  0  0  0  0  0  0  0  0  0  0
   -3.7839    0.7186    0.0617 C   0  0  0  0  0  0  0  0  0  0  0  0
   -3.8688    2.0399    0.1314 N   0  0  0  0  0  0  0  0  0  0  0  0
   -5.0214    2.6560    0.0070 C   0  0  0  0  0  0  0  0  0  0  0  0
   -6.1557    1.9360   -0.1975 C   0  0  0  0  0  0  0  0  0  0  0  0
   -5.4937    0.2746   -0.2149 S   0  0  0  0  0  0  0  0  0  0  0  0
    2.1056    1.8564    0.9939 H   0  0  0  0  0  0  0  0  0  0  0  0
    0.7068    2.0098   -0.0961 H   0  0  0  0  0  0  0  0  0  0  0  0
    0.4559    1.8856    1.6617 H   0  0  0  0  0  0  0  0  0  0  0  0
   -1.2278    1.4793    0.4816 H   0  0  0  0  0  0  0  0  0  0  0  0
   -3.7028   -1.9734   -0.1050 H   0  0  0  0  0  0  0  0  0  0  0  0
   -1.7247   -3.4202    0.0850 H   0  0  0  0  0  0  0  0  0  0  0  0
   -0.1734   -4.3382    1.1322 H   0  0  0  0  0  0  0  0  0  0  0  0
    0.0774   -4.2140   -0.6257 H   0  0  0  0  0  0  0  0  0  0  0  0
    2.5270   -4.4005   -0.2894 H   0  0  0  0  0  0  0  0  0  0  0  0
    2.2763   -4.5247    1.4685 H   0  0  0  0  0  0  0  0  0  0  0  0
    0.9302   -6.5798    1.1312 H   0  0  0  0  0  0  0  0  0  0  0  0
    1.1810   -6.4555   -0.6266 H   0  0  0  0  0  0  0  0  0  0  0  0
    0.7132   -8.3748    0.0623 H   0  0  0  0  0  0  0  0  0  0  0  0
    0.6678  -10.8265   -0.1179 H   0  0  0  0  0  0  0  0  0  0  0  0
    4.9400   -8.5068    0.6655 H   0  0  0  0  0  0  0  0  0  0  0  0
    5.6582  -11.4383   -0.4373 H   0  0  0  0  0  0  0  0  0  0  0  0
    5.7555  -11.1650    1.3286 H   0  0  0  0  0  0  0  0  0  0  0  0
    4.9298  -13.5704    0.2414 H   0  0  0  0  0  0  0  0  0  0  0  0
    4.3074  -12.9621    1.8116 H   0  0  0  0  0  0  0  0  0  0  0  0
    2.0367  -13.0449    1.9627 H   0  0  0  0  0  0  0  0  0  0  0  0
    0.9485  -12.9812    0.5556 H   0  0  0  0  0  0  0  0  0  0  0  0
   -5.0681    3.7333    0.0674 H   0  0  0  0  0  0  0  0  0  0  0  0
   -7.1742    2.2737   -0.3199 H   0  0  0  0  0  0  0  0  0  0  0  0
  1  2  1  0  0  0  0
  1 33  1  0  0  0  0
  1 34  1  0  0  0  0
  1 35  1  0  0  0  0
  2  3  1  0  0  0  0
  3  8  2  0  0  0  0
  3  4  1  0  0  0  0
  4  5  2  0  0  0  0
  4 36  1  0  0  0  0
  5  6  1  0  0  0  0
  5 28  1  0  0  0  0
  6  7  2  0  0  0  0
  6 37  1  0  0  0  0
  7  8  1  0  0  0  0
  7 38  1  0  0  0  0
  8  9  1  0  0  0  0
  9 10  1  0  0  0  0
 10 11  1  0  0  0  0
 10 39  1  0  0  0  0
 10 40  1  0  0  0  0
 11 12  1  0  0  0  0
 11 41  1  0  0  0  0
 11 42  1  0  0  0  0
 12 13  1  0  0  0  0
 12 43  1  0  0  0  0
 12 44  1  0  0  0  0
 13 14  1  0  0  0  0
 14 19  2  0  0  0  0
 14 15  1  0  0  0  0
 15 16  2  0  0  0  0
 15 45  1  0  0  0  0
 16 17  1  0  0  0  0
 16 46  1  0  0  0  0
 17 22  1  0  0  0  0
 17 18  2  0  0  0  0
 18 19  1  0  0  0  0
 18 20  1  0  0  0  0
 19 47  1  0  0  0  0
 20 21  1  0  0  0  0
 20 48  1  0  0  0  0
 20 49  1  0  0  0  0
 21 22  1  0  0  0  0
 21 50  1  0  0  0  0
 21 51  1  0  0  0  0
 22 23  1  6  0  0  0
 22 24  1  0  0  0  0
 24 25  1  0  0  0  0
 24 52  1  0  0  0  0
 24 53  1  0  0  0  0
 25 26  2  0  0  0  0
 25 27  1  0  0  0  0
 28 32  1  0  0  0  0
 28 29  2  0  0  0  0
 29 30  1  0  0  0  0
 30 31  2  0  0  0  0
 30 54  1  0  0  0  0
 31 32  1  0  0  0  0
 31 55  1  0  0  0  0
M  CHG  1  27  -1
M  END
$$$$
