CHEMBL231690
 OpenBabel05272217113D

 37 39  0  0  0  0  0  0  0  0999 V2000
   -0.0184    1.5028    0.0103 C   0  0  0  0  0  0  0  0  0  0  0  0
    0.0021   -0.0041    0.0020 C   0  0  0  0  0  0  0  0  0  0  0  0
    0.0059   -0.7076   -1.1591 C   0  0  0  0  0  0  0  0  0  0  0  0
    0.0324   -2.3789   -0.5312 S   0  0  0  0  0  0  0  0  0  0  0  0
    0.0357   -2.0088    1.1107 C   0  0  0  0  0  0  0  0  0  0  0  0
    0.0226   -0.6992    1.1217 N   0  0  0  0  0  0  0  0  0  0  0  0
    0.0549   -2.9548    2.2837 C   0  0  0  0  0  0  0  0  0  0  0  0
   -0.0641   -2.2264    3.4722 F   0  0  0  0  0  0  0  0  0  0  0  0
   -1.0138   -3.8514    2.1772 F   0  0  0  0  0  0  0  0  0  0  0  0
    1.2603   -3.6647    2.2905 F   0  0  0  0  0  0  0  0  0  0  0  0
   -0.0083   -0.2146   -2.5831 C   0  0  0  0  0  0  0  0  0  0  0  0
    1.6961    0.0070   -3.1633 S   0  0  0  0  0  0  0  0  0  0  0  0
    1.5116    0.5784   -4.8198 C   0  0  0  0  0  0  0  0  0  0  0  0
    0.2363    0.7548   -5.3563 C   0  0  0  0  0  0  0  0  0  0  0  0
    0.0754    1.2004   -6.6485 C   0  0  0  0  0  0  0  0  0  0  0  0
    1.1902    1.4791   -7.4328 C   0  0  0  0  0  0  0  0  0  0  0  0
    2.4779    1.3027   -6.8961 C   0  0  0  0  0  0  0  0  0  0  0  0
    2.6316    0.8559   -5.5818 C   0  0  0  0  0  0  0  0  0  0  0  0
    3.4148    1.6757   -7.9587 C   0  0  0  0  0  0  0  0  0  0  0  0
    2.6795    2.0376   -9.0220 C   0  0  0  0  0  0  0  0  0  0  0  0
    1.3482    1.9270   -8.7280 N   0  0  0  0  0  0  0  0  0  0  0  0
    0.2536    2.2379   -9.6507 C   0  0  0  0  0  0  0  0  0  0  0  0
   -0.2132    3.6518   -9.4182 C   0  0  0  0  0  0  0  0  0  0  0  0
    0.3192    4.3364   -8.5611 O   0  0  0  0  0  0  0  0  0  0  0  0
   -1.1231    4.1112  -10.0871 O   0  5  0  0  0  0  0  0  0  0  0  0
    1.0042    1.8801    0.0026 H   0  0  0  0  0  0  0  0  0  0  0  0
   -0.5455    1.8639   -0.8728 H   0  0  0  0  0  0  0  0  0  0  0  0
   -0.5286    1.8543    0.9071 H   0  0  0  0  0  0  0  0  0  0  0  0
   -0.5152   -0.9438   -3.2150 H   0  0  0  0  0  0  0  0  0  0  0  0
   -0.5357    0.7380   -2.6326 H   0  0  0  0  0  0  0  0  0  0  0  0
   -0.6328    0.5394   -4.7524 H   0  0  0  0  0  0  0  0  0  0  0  0
   -0.9167    1.3335   -7.0539 H   0  0  0  0  0  0  0  0  0  0  0  0
    3.6190    0.7235   -5.1648 H   0  0  0  0  0  0  0  0  0  0  0  0
    4.4930    1.6625   -7.8980 H   0  0  0  0  0  0  0  0  0  0  0  0
    3.0799    2.3677   -9.9692 H   0  0  0  0  0  0  0  0  0  0  0  0
    0.6039    2.1352  -10.6777 H   0  0  0  0  0  0  0  0  0  0  0  0
   -0.5736    1.5493   -9.4784 H   0  0  0  0  0  0  0  0  0  0  0  0
  1  2  1  0  0  0  0
  1 26  1  0  0  0  0
  1 27  1  0  0  0  0
  1 28  1  0  0  0  0
  2  6  1  0  0  0  0
  2  3  2  0  0  0  0
  3  4  1  0  0  0  0
  3 11  1  0  0  0  0
  4  5  1  0  0  0  0
  5  6  2  0  0  0  0
  5  7  1  0  0  0  0
  7  8  1  0  0  0  0
  7  9  1  0  0  0  0
  7 10  1  0  0  0  0
 11 12  1  0  0  0  0
 11 29  1  0  0  0  0
 11 30  1  0  0  0  0
 12 13  1  0  0  0  0
 13 18  2  0  0  0  0
 13 14  1  0  0  0  0
 14 15  2  0  0  0  0
 14 31  1  0  0  0  0
 15 16  1  0  0  0  0
 15 32  1  0  0  0  0
 16 21  1  0  0  0  0
 16 17  2  0  0  0  0
 17 18  1  0  0  0  0
 17 19  1  0  0  0  0
 18 33  1  0  0  0  0
 19 20  2  0  0  0  0
 19 34  1  0  0  0  0
 20 21  1  0  0  0  0
 20 35  1  0  0  0  0
 21 22  1  0  0  0  0
 22 23  1  0  0  0  0
 22 36  1  0  0  0  0
 22 37  1  0  0  0  0
 23 24  2  0  0  0  0
 23 25  1  0  0  0  0
M  CHG  1  25  -1
M  END
$$$$
