CHEMBL219610
 OpenBabel05272217113D

 53 56  0  0  1  0  0  0  0  0999 V2000
    0.1318    0.9782   -0.2165 C   0  0  0  0  0  0  0  0  0  0  0  0
    1.2714    1.7526   -0.1300 C   0  0  0  0  0  0  0  0  0  0  0  0
    2.5215    1.1747   -0.2764 C   0  0  0  0  0  0  0  0  0  0  0  0
    2.6307   -0.1841   -0.5100 C   0  0  0  0  0  0  0  0  0  0  0  0
    1.4903   -0.9630   -0.5966 C   0  0  0  0  0  0  0  0  0  0  0  0
    0.2388   -0.3847   -0.4506 C   0  0  0  0  0  0  0  0  0  0  0  0
   -0.8802   -1.1512   -0.5365 O   0  0  0  0  0  0  0  0  0  0  0  0
   -2.1353   -0.4872   -0.3758 C   0  0  0  0  0  0  0  0  0  0  0  0
   -3.2707   -1.5048   -0.5034 C   0  0  0  0  0  0  0  0  0  0  0  0
   -4.6145   -0.7939   -0.3313 C   0  0  0  0  0  0  0  0  0  0  0  0
   -5.6749   -1.7444   -0.4505 O   0  0  0  0  0  0  0  0  0  0  0  0
   -6.9431   -1.2732   -0.3219 C   0  0  0  0  0  0  0  0  0  0  0  0
   -7.1596    0.0782   -0.0913 C   0  0  0  0  0  0  0  0  0  0  0  0
   -8.4503    0.5546    0.0423 C   0  0  0  0  0  0  0  0  0  0  0  0
   -9.5194   -0.3108   -0.0539 C   0  0  0  0  0  0  0  0  0  0  0  0
   -9.3151   -1.6644   -0.2910 C   0  0  0  0  0  0  0  0  0  0  0  0
   -8.0167   -2.1416   -0.4267 C   0  0  0  0  0  0  0  0  0  0  0  0
  -10.5089   -2.3157   -0.3658 O   0  0  0  0  0  0  0  0  0  0  0  0
  -11.5362   -1.4678    0.2598 N   0  0  0  0  0  0  0  0  0  0  0  0
  -11.0147   -0.0928    0.0562 C   0  0  1  0  0  0  0  0  0  0  0  0
  -11.3454    0.7951    1.2576 C   0  0  0  0  0  0  0  0  0  0  0  0
  -10.7178    2.0363    1.1069 F   0  0  0  0  0  0  0  0  0  0  0  0
  -12.7301    0.9790    1.3343 F   0  0  0  0  0  0  0  0  0  0  0  0
  -10.8907    0.1819    2.4299 F   0  0  0  0  0  0  0  0  0  0  0  0
  -11.5337    0.4715   -1.1497 O   0  0  0  0  0  0  0  0  0  0  0  0
    4.0903   -0.5664   -0.6324 C   0  0  0  0  0  0  0  0  0  0  0  0
    4.8358    0.7612   -0.8849 C   0  0  0  0  0  0  0  0  0  0  0  0
    3.9006    1.7971   -0.2259 C   0  0  1  0  0  0  0  0  0  0  0  0
    4.1988    1.9723    0.8078 H   0  0  0  0  0  0  0  0  0  0  0  0
    3.9206    3.1080   -1.0146 C   0  0  0  0  0  0  0  0  0  0  0  0
    5.2573    3.7808   -0.8369 C   0  0  0  0  0  0  0  0  0  0  0  0
    6.0756    3.3158   -0.0618 O   0  0  0  0  0  0  0  0  0  0  0  0
    5.5204    4.7902   -1.4681 O   0  5  0  0  0  0  0  0  0  0  0  0
   -0.8410    1.4321   -0.0976 H   0  0  0  0  0  0  0  0  0  0  0  0
    1.1877    2.8138    0.0524 H   0  0  0  0  0  0  0  0  0  0  0  0
    1.5754   -2.0240   -0.7793 H   0  0  0  0  0  0  0  0  0  0  0  0
   -2.1755   -0.0194    0.6079 H   0  0  0  0  0  0  0  0  0  0  0  0
   -2.2436    0.2765   -1.1459 H   0  0  0  0  0  0  0  0  0  0  0  0
   -3.2304   -1.9726   -1.4871 H   0  0  0  0  0  0  0  0  0  0  0  0
   -3.1624   -2.2685    0.2668 H   0  0  0  0  0  0  0  0  0  0  0  0
   -4.6547   -0.3261    0.6524 H   0  0  0  0  0  0  0  0  0  0  0  0
   -4.7228   -0.0302   -1.1015 H   0  0  0  0  0  0  0  0  0  0  0  0
   -6.3218    0.7557   -0.0162 H   0  0  0  0  0  0  0  0  0  0  0  0
   -8.6215    1.6056    0.2225 H   0  0  0  0  0  0  0  0  0  0  0  0
   -7.8447   -3.1920   -0.6102 H   0  0  0  0  0  0  0  0  0  0  0  0
  -12.4292   -1.5868   -0.1946 H   0  0  0  0  0  0  0  0  0  0  0  0
  -12.4873    0.6308   -1.1308 H   0  0  0  0  0  0  0  0  0  0  0  0
    4.4395   -1.0264    0.2920 H   0  0  0  0  0  0  0  0  0  0  0  0
    4.2340   -1.2464   -1.4720 H   0  0  0  0  0  0  0  0  0  0  0  0
    5.8116    0.7560   -0.3992 H   0  0  0  0  0  0  0  0  0  0  0  0
    4.9346    0.9529   -1.9533 H   0  0  0  0  0  0  0  0  0  0  0  0
    3.7570    2.8985   -2.0717 H   0  0  0  0  0  0  0  0  0  0  0  0
    3.1316    3.7647   -0.6481 H   0  0  0  0  0  0  0  0  0  0  0  0
  1  6  2  0  0  0  0
  1  2  1  0  0  0  0
  1 34  1  0  0  0  0
  2  3  2  0  0  0  0
  2 35  1  0  0  0  0
  3 28  1  0  0  0  0
  3  4  1  0  0  0  0
  4  5  2  0  0  0  0
  4 26  1  0  0  0  0
  5  6  1  0  0  0  0
  5 36  1  0  0  0  0
  6  7  1  0  0  0  0
  7  8  1  0  0  0  0
  8  9  1  0  0  0  0
  8 37  1  0  0  0  0
  8 38  1  0  0  0  0
  9 10  1  0  0  0  0
  9 39  1  0  0  0  0
  9 40  1  0  0  0  0
 10 11  1  0  0  0  0
 10 41  1  0  0  0  0
 10 42  1  0  0  0  0
 11 12  1  0  0  0  0
 12 17  2  0  0  0  0
 12 13  1  0  0  0  0
 13 14  2  0  0  0  0
 13 43  1  0  0  0  0
 14 15  1  0  0  0  0
 14 44  1  0  0  0  0
 15 20  1  0  0  0  0
 15 16  2  0  0  0  0
 16 17  1  0  0  0  0
 16 18  1  0  0  0  0
 17 45  1  0  0  0  0
 18 19  1  0  0  0  0
 19 20  1  0  0  0  0
 19 46  1  0  0  0  0
 20 21  1  0  0  0  0
 20 25  1  6  0  0  0
 21 22  1  0  0  0  0
 21 23  1  0  0  0  0
 21 24  1  0  0  0  0
 25 47  1  0  0  0  0
 26 27  1  0  0  0  0
 26 48  1  0  0  0  0
 26 49  1  0  0  0  0
 27 28  1  0  0  0  0
 27 50  1  0  0  0  0
 27 51  1  0  0  0  0
 28 29  1  1  0  0  0
 28 30  1  0  0  0  0
 30 31  1  0  0  0  0
 30 52  1  0  0  0  0
 30 53  1  0  0  0  0
 31 32  2  0  0  0  0
 31 33  1  0  0  0  0
M  CHG  1  33  -1
M  END
$$$$
