CHEMBL516492
 OpenBabel05272217113D

 49 51  0  0  0  0  0  0  0  0999 V2000
    5.6490   -6.6008    1.9964 C   0  0  0  0  0  0  0  0  0  0  0  0
    4.4183   -5.9479    1.4219 C   0  0  0  0  0  0  0  0  0  0  0  0
    3.9269   -6.3578    0.1980 C   0  0  0  0  0  0  0  0  0  0  0  0
    2.7925   -5.7559   -0.3313 C   0  0  0  0  0  0  0  0  0  0  0  0
    2.1534   -4.7419    0.3714 C   0  0  0  0  0  0  0  0  0  0  0  0
    2.6464   -4.3337    1.5948 C   0  0  0  0  0  0  0  0  0  0  0  0
    3.7762   -4.9395    2.1250 C   0  0  0  0  0  0  0  0  0  0  0  0
    4.2575   -4.5408    3.3330 O   0  0  0  0  0  0  0  0  0  0  0  0
    3.5467   -3.4972    4.0021 C   0  0  0  0  0  0  0  0  0  0  0  0
    4.2212   -3.1916    5.3146 C   0  0  0  0  0  0  0  0  0  0  0  0
    5.2182   -3.8101    5.6463 O   0  0  0  0  0  0  0  0  0  0  0  0
    3.7700   -2.3258    6.0449 O   0  5  0  0  0  0  0  0  0  0  0  0
    2.1648   -6.2774   -1.8929 S   0  0  0  0  0  0  0  0  0  0  0  0
    0.7106   -5.2252   -2.1549 C   0  0  0  0  0  0  0  0  0  0  0  0
    0.0605   -5.5780   -3.4943 C   0  0  0  0  0  0  0  0  0  0  0  0
   -1.4596   -5.7500   -3.5181 C   0  0  0  0  0  0  0  0  0  0  0  0
   -0.5493   -6.9739   -3.6375 C   0  0  0  0  0  0  0  0  0  0  0  0
    0.7221   -4.9658   -4.7305 C   0  0  0  0  0  0  0  0  0  0  0  0
    0.5845   -3.5440   -4.6896 O   0  0  0  0  0  0  0  0  0  0  0  0
    1.1217   -2.8422   -5.7220 C   0  0  0  0  0  0  0  0  0  0  0  0
    1.7630   -3.5087   -6.7561 C   0  0  0  0  0  0  0  0  0  0  0  0
    2.3078   -2.7931   -7.8046 C   0  0  0  0  0  0  0  0  0  0  0  0
    2.2148   -1.4137   -7.8238 C   0  0  0  0  0  0  0  0  0  0  0  0
    1.5766   -0.7470   -6.7942 C   0  0  0  0  0  0  0  0  0  0  0  0
    1.0248   -1.4585   -5.7465 C   0  0  0  0  0  0  0  0  0  0  0  0
    2.8105   -0.6354   -8.9686 C   0  0  0  0  0  0  0  0  0  0  0  0
    1.8521   -0.4807   -9.9759 F   0  0  0  0  0  0  0  0  0  0  0  0
    3.2175    0.6238   -8.5147 F   0  0  0  0  0  0  0  0  0  0  0  0
    3.9149   -1.3269   -9.4778 F   0  0  0  0  0  0  0  0  0  0  0  0
    5.3563   -7.4589    2.6014 H   0  0  0  0  0  0  0  0  0  0  0  0
    6.2968   -6.9325    1.1849 H   0  0  0  0  0  0  0  0  0  0  0  0
    6.1842   -5.8833    2.6184 H   0  0  0  0  0  0  0  0  0  0  0  0
    4.4247   -7.1459   -0.3475 H   0  0  0  0  0  0  0  0  0  0  0  0
    1.2715   -4.2729   -0.0394 H   0  0  0  0  0  0  0  0  0  0  0  0
    2.1498   -3.5455    2.1411 H   0  0  0  0  0  0  0  0  0  0  0  0
    3.5425   -2.6030    3.3789 H   0  0  0  0  0  0  0  0  0  0  0  0
    2.5210   -3.8165    4.1865 H   0  0  0  0  0  0  0  0  0  0  0  0
   -0.0055   -5.3879   -1.3494 H   0  0  0  0  0  0  0  0  0  0  0  0
    1.0160   -4.1789   -2.1638 H   0  0  0  0  0  0  0  0  0  0  0  0
   -1.9965   -5.6117   -2.5796 H   0  0  0  0  0  0  0  0  0  0  0  0
   -1.9887   -5.4268   -4.4146 H   0  0  0  0  0  0  0  0  0  0  0  0
   -0.4795   -7.4559   -4.6127 H   0  0  0  0  0  0  0  0  0  0  0  0
   -0.4874   -7.6409   -2.7777 H   0  0  0  0  0  0  0  0  0  0  0  0
    1.7800   -5.2282   -4.7440 H   0  0  0  0  0  0  0  0  0  0  0  0
    0.2405   -5.3517   -5.6290 H   0  0  0  0  0  0  0  0  0  0  0  0
    1.8365   -4.5861   -6.7412 H   0  0  0  0  0  0  0  0  0  0  0  0
    2.8071   -3.3114   -8.6098 H   0  0  0  0  0  0  0  0  0  0  0  0
    1.5056    0.3305   -6.8113 H   0  0  0  0  0  0  0  0  0  0  0  0
    0.5225   -0.9377   -4.9447 H   0  0  0  0  0  0  0  0  0  0  0  0
  1  2  1  0  0  0  0
  1 30  1  0  0  0  0
  1 31  1  0  0  0  0
  1 32  1  0  0  0  0
  2  7  2  0  0  0  0
  2  3  1  0  0  0  0
  3  4  2  0  0  0  0
  3 33  1  0  0  0  0
  4  5  1  0  0  0  0
  4 13  1  0  0  0  0
  5  6  2  0  0  0  0
  5 34  1  0  0  0  0
  6  7  1  0  0  0  0
  6 35  1  0  0  0  0
  7  8  1  0  0  0  0
  8  9  1  0  0  0  0
  9 10  1  0  0  0  0
  9 36  1  0  0  0  0
  9 37  1  0  0  0  0
 10 11  2  0  0  0  0
 10 12  1  0  0  0  0
 13 14  1  0  0  0  0
 14 15  1  0  0  0  0
 14 38  1  0  0  0  0
 14 39  1  0  0  0  0
 15 17  1  0  0  0  0
 15 16  1  0  0  0  0
 15 18  1  0  0  0  0
 16 17  1  0  0  0  0
 16 40  1  0  0  0  0
 16 41  1  0  0  0  0
 17 42  1  0  0  0  0
 17 43  1  0  0  0  0
 18 19  1  0  0  0  0
 18 44  1  0  0  0  0
 18 45  1  0  0  0  0
 19 20  1  0  0  0  0
 20 25  2  0  0  0  0
 20 21  1  0  0  0  0
 21 22  2  0  0  0  0
 21 46  1  0  0  0  0
 22 23  1  0  0  0  0
 22 47  1  0  0  0  0
 23 24  2  0  0  0  0
 23 26  1  0  0  0  0
 24 25  1  0  0  0  0
 24 48  1  0  0  0  0
 25 49  1  0  0  0  0
 26 27  1  0  0  0  0
 26 28  1  0  0  0  0
 26 29  1  0  0  0  0
M  CHG  1  12  -1
M  END
$$$$
