CHEMBL213315
 OpenBabel05272217113D

 61 63  0  0  1  0  0  0  0  0999 V2000
    1.4909    2.1239   -2.6989 C   0  0  0  0  0  0  0  0  0  0  0  0
    1.3115    0.7064   -2.2198 C   0  0  0  0  0  0  0  0  0  0  0  0
    1.0598   -0.3029   -3.1292 C   0  0  0  0  0  0  0  0  0  0  0  0
    0.8953   -1.6075   -2.6876 C   0  0  0  0  0  0  0  0  0  0  0  0
    0.9840   -1.8954   -1.3332 C   0  0  0  0  0  0  0  0  0  0  0  0
    1.2357   -0.8829   -0.4281 C   0  0  0  0  0  0  0  0  0  0  0  0
    1.4046    0.4161   -0.8714 C   0  0  0  0  0  0  0  0  0  0  0  0
    1.6854    1.5180    0.1176 C   0  0  0  0  0  0  0  0  0  0  0  0
    0.3729    2.2024    0.5048 C   0  0  0  0  0  0  0  0  0  0  0  0
    0.6536    3.3042    1.4938 C   0  0  0  0  0  0  0  0  0  0  0  0
    1.7975    3.5219    1.8555 O   0  0  0  0  0  0  0  0  0  0  0  0
   -0.2630    3.9779    1.9324 O   0  5  0  0  0  0  0  0  0  0  0  0
    0.6473   -2.6020   -3.5800 O   0  0  0  0  0  0  0  0  0  0  0  0
    0.4888   -3.9212   -3.0539 C   0  0  0  0  0  0  0  0  0  0  0  0
    0.2183   -4.8981   -4.1999 C   0  0  0  0  0  0  0  0  0  0  0  0
    0.0486   -6.3105   -3.6366 C   0  0  1  0  0  0  0  0  0  0  0  0
   -0.7314   -6.3068   -2.8753 H   0  0  0  0  0  0  0  0  0  0  0  0
   -0.3447   -7.2658   -4.7651 C   0  0  0  0  0  0  0  0  0  0  0  0
    1.2802   -6.7423   -3.0545 O   0  0  0  0  0  0  0  0  0  0  0  0
    1.2062   -7.7030   -2.0950 C   0  0  0  0  0  0  0  0  0  0  0  0
   -0.0132   -8.2848   -1.7874 C   0  0  0  0  0  0  0  0  0  0  0  0
   -0.0866   -9.2617   -0.8120 C   0  0  0  0  0  0  0  0  0  0  0  0
    1.0547   -9.6603   -0.1410 C   0  0  0  0  0  0  0  0  0  0  0  0
    2.2744   -9.0838   -0.4425 C   0  0  0  0  0  0  0  0  0  0  0  0
    2.3561   -8.1083   -1.4236 C   0  0  0  0  0  0  0  0  0  0  0  0
    3.5560   -7.5444   -1.7256 O   0  0  0  0  0  0  0  0  0  0  0  0
    4.6658   -8.0445   -1.1219 C   0  0  0  0  0  0  0  0  0  0  0  0
    5.2046   -9.2505   -1.5471 C   0  0  0  0  0  0  0  0  0  0  0  0
    6.3332   -9.7564   -0.9320 C   0  0  0  0  0  0  0  0  0  0  0  0
    6.9261   -9.0622    0.1066 C   0  0  0  0  0  0  0  0  0  0  0  0
    6.3909   -7.8605    0.5325 C   0  0  0  0  0  0  0  0  0  0  0  0
    5.2657   -7.3473   -0.0829 C   0  0  0  0  0  0  0  0  0  0  0  0
    0.9687  -10.7253    0.9217 C   0  0  0  0  0  0  0  0  0  0  0  0
   -0.3575  -11.1527    1.0474 F   0  0  0  0  0  0  0  0  0  0  0  0
    1.7759  -11.8097    0.5616 F   0  0  0  0  0  0  0  0  0  0  0  0
    1.4078  -10.2023    2.1427 F   0  0  0  0  0  0  0  0  0  0  0  0
    2.5433    2.3026   -2.9192 H   0  0  0  0  0  0  0  0  0  0  0  0
    0.8992    2.2802   -3.6010 H   0  0  0  0  0  0  0  0  0  0  0  0
    1.1598    2.8143   -1.9231 H   0  0  0  0  0  0  0  0  0  0  0  0
    0.9909   -0.0763   -4.1829 H   0  0  0  0  0  0  0  0  0  0  0  0
    0.8559   -2.9103   -0.9868 H   0  0  0  0  0  0  0  0  0  0  0  0
    1.3048   -1.1064    0.6262 H   0  0  0  0  0  0  0  0  0  0  0  0
    2.1520    1.0967    1.0081 H   0  0  0  0  0  0  0  0  0  0  0  0
    2.3568    2.2486   -0.3334 H   0  0  0  0  0  0  0  0  0  0  0  0
   -0.0937    2.6236   -0.3856 H   0  0  0  0  0  0  0  0  0  0  0  0
   -0.2986    1.4717    0.9558 H   0  0  0  0  0  0  0  0  0  0  0  0
    1.3994   -4.2161   -2.5323 H   0  0  0  0  0  0  0  0  0  0  0  0
   -0.3498   -3.9364   -2.3578 H   0  0  0  0  0  0  0  0  0  0  0  0
   -0.6923   -4.6032   -4.7214 H   0  0  0  0  0  0  0  0  0  0  0  0
    1.0569   -4.8829   -4.8960 H   0  0  0  0  0  0  0  0  0  0  0  0
   -1.2841   -6.9365   -5.2091 H   0  0  0  0  0  0  0  0  0  0  0  0
    0.4354   -7.2696   -5.5264 H   0  0  0  0  0  0  0  0  0  0  0  0
   -0.4655   -8.2721   -4.3638 H   0  0  0  0  0  0  0  0  0  0  0  0
   -0.9063   -7.9748   -2.3095 H   0  0  0  0  0  0  0  0  0  0  0  0
   -1.0377   -9.7143   -0.5733 H   0  0  0  0  0  0  0  0  0  0  0  0
    3.1642   -9.3965    0.0837 H   0  0  0  0  0  0  0  0  0  0  0  0
    4.7418   -9.7933   -2.3580 H   0  0  0  0  0  0  0  0  0  0  0  0
    6.7528  -10.6952   -1.2623 H   0  0  0  0  0  0  0  0  0  0  0  0
    7.8084   -9.4595    0.5861 H   0  0  0  0  0  0  0  0  0  0  0  0
    6.8556   -7.3204    1.3442 H   0  0  0  0  0  0  0  0  0  0  0  0
    4.8507   -6.4065    0.2472 H   0  0  0  0  0  0  0  0  0  0  0  0
  1  2  1  0  0  0  0
  1 37  1  0  0  0  0
  1 38  1  0  0  0  0
  1 39  1  0  0  0  0
  2  7  2  0  0  0  0
  2  3  1  0  0  0  0
  3  4  2  0  0  0  0
  3 40  1  0  0  0  0
  4  5  1  0  0  0  0
  4 13  1  0  0  0  0
  5  6  2  0  0  0  0
  5 41  1  0  0  0  0
  6  7  1  0  0  0  0
  6 42  1  0  0  0  0
  7  8  1  0  0  0  0
  8  9  1  0  0  0  0
  8 43  1  0  0  0  0
  8 44  1  0  0  0  0
  9 10  1  0  0  0  0
  9 45  1  0  0  0  0
  9 46  1  0  0  0  0
 10 11  2  0  0  0  0
 10 12  1  0  0  0  0
 13 14  1  0  0  0  0
 14 15  1  0  0  0  0
 14 47  1  0  0  0  0
 14 48  1  0  0  0  0
 15 16  1  0  0  0  0
 15 49  1  0  0  0  0
 15 50  1  0  0  0  0
 16 17  1  1  0  0  0
 16 18  1  0  0  0  0
 16 19  1  0  0  0  0
 18 51  1  0  0  0  0
 18 52  1  0  0  0  0
 18 53  1  0  0  0  0
 19 20  1  0  0  0  0
 20 25  2  0  0  0  0
 20 21  1  0  0  0  0
 21 22  2  0  0  0  0
 21 54  1  0  0  0  0
 22 23  1  0  0  0  0
 22 55  1  0  0  0  0
 23 24  2  0  0  0  0
 23 33  1  0  0  0  0
 24 25  1  0  0  0  0
 24 56  1  0  0  0  0
 25 26  1  0  0  0  0
 26 27  1  0  0  0  0
 27 32  2  0  0  0  0
 27 28  1  0  0  0  0
 28 29  2  0  0  0  0
 28 57  1  0  0  0  0
 29 30  1  0  0  0  0
 29 58  1  0  0  0  0
 30 31  2  0  0  0  0
 30 59  1  0  0  0  0
 31 32  1  0  0  0  0
 31 60  1  0  0  0  0
 32 61  1  0  0  0  0
 33 34  1  0  0  0  0
 33 35  1  0  0  0  0
 33 36  1  0  0  0  0
M  CHG  1  12  -1
M  END
$$$$
