CHEMBL234659
 OpenBabel05272217113D

 56 58  0  0  0  0  0  0  0  0999 V2000
   -0.0184    1.5028    0.0103 C   0  0  0  0  0  0  0  0  0  0  0  0
    0.0021   -0.0041    0.0020 C   0  0  0  0  0  0  0  0  0  0  0  0
    0.0057   -0.6876   -1.1997 C   0  0  0  0  0  0  0  0  0  0  0  0
    0.0240   -2.0744   -1.2093 C   0  0  0  0  0  0  0  0  0  0  0  0
    0.0393   -2.7778   -0.0062 C   0  0  0  0  0  0  0  0  0  0  0  0
    0.0360   -2.0900    1.1952 C   0  0  0  0  0  0  0  0  0  0  0  0
    0.0229   -0.7026    1.1996 C   0  0  0  0  0  0  0  0  0  0  0  0
    0.0249   -0.0270    2.3799 O   0  0  0  0  0  0  0  0  0  0  0  0
    0.0469   -0.8097    3.5753 C   0  0  0  0  0  0  0  0  0  0  0  0
    0.0458    0.1038    4.7739 C   0  0  0  0  0  0  0  0  0  0  0  0
    0.0279    1.3129    4.6188 O   0  0  0  0  0  0  0  0  0  0  0  0
    0.0629   -0.3664    5.8987 O   0  5  0  0  0  0  0  0  0  0  0  0
    0.0568   -4.1377   -0.0124 O   0  0  0  0  0  0  0  0  0  0  0  0
    0.0718   -4.7921    1.2579 C   0  0  0  0  0  0  0  0  0  0  0  0
    0.0275   -2.9460   -2.7407 S   0  0  0  0  0  0  0  0  0  0  0  0
    0.0035   -1.6335   -3.9926 C   0  0  0  0  0  0  0  0  0  0  0  0
    0.0044   -2.2507   -5.3675 C   0  0  0  0  0  0  0  0  0  0  0  0
    1.2028   -2.5226   -6.0011 C   0  0  0  0  0  0  0  0  0  0  0  0
    1.2064   -3.0879   -7.2616 C   0  0  0  0  0  0  0  0  0  0  0  0
    0.0061   -3.3831   -7.8915 C   0  0  0  0  0  0  0  0  0  0  0  0
   -1.1951   -3.1097   -7.2534 C   0  0  0  0  0  0  0  0  0  0  0  0
   -1.1932   -2.5492   -5.9908 C   0  0  0  0  0  0  0  0  0  0  0  0
    0.0069   -3.9389   -9.1316 O   0  0  0  0  0  0  0  0  0  0  0  0
   -1.2659   -4.2160   -9.7192 C   0  0  0  0  0  0  0  0  0  0  0  0
   -1.0676   -4.8250  -11.0833 C   0  0  0  0  0  0  0  0  0  0  0  0
   -0.9828   -4.0116  -12.1978 C   0  0  0  0  0  0  0  0  0  0  0  0
   -0.8008   -4.5703  -13.4490 C   0  0  0  0  0  0  0  0  0  0  0  0
   -0.7032   -5.9424  -13.5858 C   0  0  0  0  0  0  0  0  0  0  0  0
   -0.7871   -6.7558  -12.4712 C   0  0  0  0  0  0  0  0  0  0  0  0
   -0.9648   -6.1968  -11.2194 C   0  0  0  0  0  0  0  0  0  0  0  0
   -0.5059   -6.5516  -14.9499 C   0  0  0  0  0  0  0  0  0  0  0  0
    0.8628   -6.6625  -15.2176 F   0  0  0  0  0  0  0  0  0  0  0  0
   -1.0919   -7.8215  -14.9828 F   0  0  0  0  0  0  0  0  0  0  0  0
   -1.1054   -5.7363  -15.9159 F   0  0  0  0  0  0  0  0  0  0  0  0
    1.0042    1.8801    0.0026 H   0  0  0  0  0  0  0  0  0  0  0  0
   -0.5455    1.8639   -0.8728 H   0  0  0  0  0  0  0  0  0  0  0  0
   -0.5286    1.8543    0.9071 H   0  0  0  0  0  0  0  0  0  0  0  0
   -0.0061   -0.1415   -2.1314 H   0  0  0  0  0  0  0  0  0  0  0  0
    0.0478   -2.6330    2.1287 H   0  0  0  0  0  0  0  0  0  0  0  0
   -0.8342   -1.4507    3.6062 H   0  0  0  0  0  0  0  0  0  0  0  0
    0.9455   -1.4264    3.5893 H   0  0  0  0  0  0  0  0  0  0  0  0
    0.0850   -5.8720    1.1101 H   0  0  0  0  0  0  0  0  0  0  0  0
    0.9607   -4.4903    1.8117 H   0  0  0  0  0  0  0  0  0  0  0  0
   -0.8190   -4.5133    1.8208 H   0  0  0  0  0  0  0  0  0  0  0  0
   -0.8940   -1.0278   -3.8669 H   0  0  0  0  0  0  0  0  0  0  0  0
    0.8858   -1.0042   -3.8763 H   0  0  0  0  0  0  0  0  0  0  0  0
    2.1370   -2.2926   -5.5103 H   0  0  0  0  0  0  0  0  0  0  0  0
    2.1427   -3.2995   -7.7564 H   0  0  0  0  0  0  0  0  0  0  0  0
   -2.1308   -3.3386   -7.7417 H   0  0  0  0  0  0  0  0  0  0  0  0
   -2.1279   -2.3402   -5.4918 H   0  0  0  0  0  0  0  0  0  0  0  0
   -1.8143   -4.9135   -9.0861 H   0  0  0  0  0  0  0  0  0  0  0  0
   -1.8319   -3.2892   -9.8139 H   0  0  0  0  0  0  0  0  0  0  0  0
   -1.0590   -2.9396  -12.0910 H   0  0  0  0  0  0  0  0  0  0  0  0
   -0.7353   -3.9349  -14.3198 H   0  0  0  0  0  0  0  0  0  0  0  0
   -0.7112   -7.8278  -12.5780 H   0  0  0  0  0  0  0  0  0  0  0  0
   -1.0266   -6.8321  -10.3482 H   0  0  0  0  0  0  0  0  0  0  0  0
  1  2  1  0  0  0  0
  1 35  1  0  0  0  0
  1 36  1  0  0  0  0
  1 37  1  0  0  0  0
  2  7  2  0  0  0  0
  2  3  1  0  0  0  0
  3  4  2  0  0  0  0
  3 38  1  0  0  0  0
  4  5  1  0  0  0  0
  4 15  1  0  0  0  0
  5  6  2  0  0  0  0
  5 13  1  0  0  0  0
  6  7  1  0  0  0  0
  6 39  1  0  0  0  0
  7  8  1  0  0  0  0
  8  9  1  0  0  0  0
  9 10  1  0  0  0  0
  9 40  1  0  0  0  0
  9 41  1  0  0  0  0
 10 11  2  0  0  0  0
 10 12  1  0  0  0  0
 13 14  1  0  0  0  0
 14 42  1  0  0  0  0
 14 43  1  0  0  0  0
 14 44  1  0  0  0  0
 15 16  1  0  0  0  0
 16 17  1  0  0  0  0
 16 45  1  0  0  0  0
 16 46  1  0  0  0  0
 17 22  2  0  0  0  0
 17 18  1  0  0  0  0
 18 19  2  0  0  0  0
 18 47  1  0  0  0  0
 19 20  1  0  0  0  0
 19 48  1  0  0  0  0
 20 21  2  0  0  0  0
 20 23  1  0  0  0  0
 21 22  1  0  0  0  0
 21 49  1  0  0  0  0
 22 50  1  0  0  0  0
 23 24  1  0  0  0  0
 24 25  1  0  0  0  0
 24 51  1  0  0  0  0
 24 52  1  0  0  0  0
 25 30  2  0  0  0  0
 25 26  1  0  0  0  0
 26 27  2  0  0  0  0
 26 53  1  0  0  0  0
 27 28  1  0  0  0  0
 27 54  1  0  0  0  0
 28 29  2  0  0  0  0
 28 31  1  0  0  0  0
 29 30  1  0  0  0  0
 29 55  1  0  0  0  0
 30 56  1  0  0  0  0
 31 32  1  0  0  0  0
 31 33  1  0  0  0  0
 31 34  1  0  0  0  0
M  CHG  1  12  -1
M  END
$$$$
