CHEMBL496593
 OpenBabel05272217113D

 65 68  0  0  0  0  0  0  0  0999 V2000
    1.2099    0.7827   -0.1829 C   0  0  0  0  0  0  0  0  0  0  0  0
    0.9621   -0.7271   -0.1845 C   0  0  0  0  0  0  0  0  0  0  0  0
   -0.4849   -0.9870   -0.1115 C   0  0  0  0  0  0  0  0  0  0  0  0
   -1.6390   -1.1942   -0.0532 C   0  0  0  0  0  0  0  0  0  0  0  0
   -3.0860   -1.4541    0.0198 C   0  0  0  0  0  0  0  0  0  0  0  0
   -3.3174   -2.8643    0.0183 O   0  0  0  0  0  0  0  0  0  0  0  0
   -4.6115   -3.2777    0.0818 C   0  0  0  0  0  0  0  0  0  0  0  0
   -5.6356   -2.3470    0.1384 C   0  0  0  0  0  0  0  0  0  0  0  0
   -6.9511   -2.7688    0.2025 C   0  0  0  0  0  0  0  0  0  0  0  0
   -7.2489   -4.1191    0.2104 C   0  0  0  0  0  0  0  0  0  0  0  0
   -6.2332   -5.0545    0.1547 C   0  0  0  0  0  0  0  0  0  0  0  0
   -4.9107   -4.6389    0.0844 C   0  0  0  0  0  0  0  0  0  0  0  0
   -3.6136   -5.8288    0.0059 S   0  0  0  0  0  0  0  0  0  0  0  0
   -3.1143   -5.8043   -1.6838 C   0  0  0  0  0  0  0  0  0  0  0  0
   -3.8226   -5.0411   -2.5997 C   0  0  0  0  0  0  0  0  0  0  0  0
   -3.4317   -5.0226   -3.9237 C   0  0  0  0  0  0  0  0  0  0  0  0
   -2.3374   -5.7681   -4.3285 C   0  0  0  0  0  0  0  0  0  0  0  0
   -1.6244   -6.5373   -3.4108 C   0  0  0  0  0  0  0  0  0  0  0  0
   -2.0056   -6.5486   -2.0893 C   0  0  0  0  0  0  0  0  0  0  0  0
   -1.2692   -7.3388   -1.0394 C   0  0  0  0  0  0  0  0  0  0  0  0
   -0.3875   -8.4038   -1.6883 C   0  0  0  0  0  0  0  0  0  0  0  0
    0.4698   -7.7308   -2.7666 C   0  0  0  0  0  0  0  0  0  0  0  0
   -0.4498   -7.3293   -3.9228 C   0  0  0  0  0  0  0  0  0  0  0  0
   -1.9553   -5.7499   -5.6336 O   0  0  0  0  0  0  0  0  0  0  0  0
   -2.7274   -4.9423   -6.5245 C   0  0  0  0  0  0  0  0  0  0  0  0
   -2.1595   -5.0463   -7.9165 C   0  0  0  0  0  0  0  0  0  0  0  0
   -1.1841   -5.7470   -8.1262 O   0  0  0  0  0  0  0  0  0  0  0  0
   -2.6756   -4.4297   -8.8330 O   0  5  0  0  0  0  0  0  0  0  0  0
   -8.0633   -1.7538    0.2645 C   0  0  0  0  0  0  0  0  0  0  0  0
   -8.4829   -1.4254   -1.0615 O   0  0  0  0  0  0  0  0  0  0  0  0
   -9.5399   -0.4653   -1.1156 C   0  0  0  0  0  0  0  0  0  0  0  0
   -9.9057   -0.1912   -2.5757 C   0  0  0  0  0  0  0  0  0  0  0  0
   -9.6786    1.2255   -3.1069 C   0  0  0  0  0  0  0  0  0  0  0  0
  -11.1007    0.7257   -2.8445 C   0  0  0  0  0  0  0  0  0  0  0  0
    2.2814    0.9751   -0.2369 H   0  0  0  0  0  0  0  0  0  0  0  0
    0.7160    1.2328   -1.0440 H   0  0  0  0  0  0  0  0  0  0  0  0
    0.8087    1.2157    0.7334 H   0  0  0  0  0  0  0  0  0  0  0  0
    1.3633   -1.1602   -1.1008 H   0  0  0  0  0  0  0  0  0  0  0  0
    1.4560   -1.1772    0.6767 H   0  0  0  0  0  0  0  0  0  0  0  0
   -3.4872   -1.0211    0.9361 H   0  0  0  0  0  0  0  0  0  0  0  0
   -3.5799   -1.0040   -0.8414 H   0  0  0  0  0  0  0  0  0  0  0  0
   -5.4067   -1.2916    0.1328 H   0  0  0  0  0  0  0  0  0  0  0  0
   -8.2778   -4.4435    0.2606 H   0  0  0  0  0  0  0  0  0  0  0  0
   -6.4686   -6.1086    0.1617 H   0  0  0  0  0  0  0  0  0  0  0  0
   -4.6770   -4.4637   -2.2786 H   0  0  0  0  0  0  0  0  0  0  0  0
   -3.9780   -4.4287   -4.6415 H   0  0  0  0  0  0  0  0  0  0  0  0
   -0.6453   -6.6639   -0.4535 H   0  0  0  0  0  0  0  0  0  0  0  0
   -1.9912   -7.8222   -0.3812 H   0  0  0  0  0  0  0  0  0  0  0  0
    0.2580   -8.8550   -0.9347 H   0  0  0  0  0  0  0  0  0  0  0  0
   -1.0136   -9.1714   -2.1432 H   0  0  0  0  0  0  0  0  0  0  0  0
    0.9561   -6.8482   -2.3511 H   0  0  0  0  0  0  0  0  0  0  0  0
    1.2238   -8.4310   -3.1261 H   0  0  0  0  0  0  0  0  0  0  0  0
   -0.8129   -8.2209   -4.4340 H   0  0  0  0  0  0  0  0  0  0  0  0
    0.1168   -6.7184   -4.6255 H   0  0  0  0  0  0  0  0  0  0  0  0
   -3.7606   -5.2896   -6.5266 H   0  0  0  0  0  0  0  0  0  0  0  0
   -2.6938   -3.9039   -6.1950 H   0  0  0  0  0  0  0  0  0  0  0  0
   -8.9044   -2.1698    0.8191 H   0  0  0  0  0  0  0  0  0  0  0  0
   -7.7067   -0.8542    0.7660 H   0  0  0  0  0  0  0  0  0  0  0  0
  -10.4116   -0.8546   -0.5896 H   0  0  0  0  0  0  0  0  0  0  0  0
   -9.2139    0.4611   -0.6427 H   0  0  0  0  0  0  0  0  0  0  0  0
   -9.7420   -1.0197   -3.2648 H   0  0  0  0  0  0  0  0  0  0  0  0
   -9.2686    1.9623   -2.4162 H   0  0  0  0  0  0  0  0  0  0  0  0
   -9.3653    1.3293   -4.1458 H   0  0  0  0  0  0  0  0  0  0  0  0
  -11.7229    0.5006   -3.7107 H   0  0  0  0  0  0  0  0  0  0  0  0
  -11.6262    1.1337   -1.9811 H   0  0  0  0  0  0  0  0  0  0  0  0
  1  2  1  0  0  0  0
  1 35  1  0  0  0  0
  1 36  1  0  0  0  0
  1 37  1  0  0  0  0
  2  3  1  0  0  0  0
  2 38  1  0  0  0  0
  2 39  1  0  0  0  0
  3  4  3  0  0  0  0
  4  5  1  0  0  0  0
  5  6  1  0  0  0  0
  5 40  1  0  0  0  0
  5 41  1  0  0  0  0
  6  7  1  0  0  0  0
  7 12  2  0  0  0  0
  7  8  1  0  0  0  0
  8  9  2  0  0  0  0
  8 42  1  0  0  0  0
  9 10  1  0  0  0  0
  9 29  1  0  0  0  0
 10 11  2  0  0  0  0
 10 43  1  0  0  0  0
 11 12  1  0  0  0  0
 11 44  1  0  0  0  0
 12 13  1  0  0  0  0
 13 14  1  0  0  0  0
 14 19  2  0  0  0  0
 14 15  1  0  0  0  0
 15 16  2  0  0  0  0
 15 45  1  0  0  0  0
 16 17  1  0  0  0  0
 16 46  1  0  0  0  0
 17 18  2  0  0  0  0
 17 24  1  0  0  0  0
 18 23  1  0  0  0  0
 18 19  1  0  0  0  0
 19 20  1  0  0  0  0
 20 21  1  0  0  0  0
 20 47  1  0  0  0  0
 20 48  1  0  0  0  0
 21 22  1  0  0  0  0
 21 49  1  0  0  0  0
 21 50  1  0  0  0  0
 22 23  1  0  0  0  0
 22 51  1  0  0  0  0
 22 52  1  0  0  0  0
 23 53  1  0  0  0  0
 23 54  1  0  0  0  0
 24 25  1  0  0  0  0
 25 26  1  0  0  0  0
 25 55  1  0  0  0  0
 25 56  1  0  0  0  0
 26 27  2  0  0  0  0
 26 28  1  0  0  0  0
 29 30  1  0  0  0  0
 29 57  1  0  0  0  0
 29 58  1  0  0  0  0
 30 31  1  0  0  0  0
 31 32  1  0  0  0  0
 31 59  1  0  0  0  0
 31 60  1  0  0  0  0
 32 34  1  0  0  0  0
 32 33  1  0  0  0  0
 32 61  1  0  0  0  0
 33 34  1  0  0  0  0
 33 62  1  0  0  0  0
 33 63  1  0  0  0  0
 34 64  1  0  0  0  0
 34 65  1  0  0  0  0
M  CHG  1  28  -1
M  END
$$$$
