CHEMBL425116
 OpenBabel05272217113D

 61 64  0  0  1  0  0  0  0  0999 V2000
    0.7663    1.6337   -0.3374 C   0  0  0  0  0  0  0  0  0  0  0  0
    0.8269    0.2083   -0.4174 O   0  0  0  0  0  0  0  0  0  0  0  0
   -0.3381   -0.4452   -0.6428 C   0  0  0  0  0  0  0  0  0  0  0  0
   -0.3653   -1.8473   -0.7292 C   0  0  0  0  0  0  0  0  0  0  0  0
   -1.5902   -2.4696   -0.9619 C   0  0  0  0  0  0  0  0  0  0  0  0
   -2.6761   -1.7244   -1.0924 N   0  0  0  0  0  0  0  0  0  0  0  0
   -2.6128   -0.4057   -1.0051 C   0  0  0  0  0  0  0  0  0  0  0  0
   -1.4727    0.2276   -0.7801 N   0  0  0  0  0  0  0  0  0  0  0  0
   -3.7496    0.3174   -1.1450 O   0  0  0  0  0  0  0  0  0  0  0  0
   -4.9565   -0.4104   -1.3810 C   0  0  0  0  0  0  0  0  0  0  0  0
    0.8767   -2.6437   -0.5772 C   0  0  0  0  0  0  0  0  0  0  0  0
    2.0147   -2.3093   -1.3093 C   0  0  0  0  0  0  0  0  0  0  0  0
    3.1683   -3.0516   -1.1654 C   0  0  0  0  0  0  0  0  0  0  0  0
    3.1965   -4.1310   -0.2931 C   0  0  0  0  0  0  0  0  0  0  0  0
    2.0648   -4.4665    0.4374 C   0  0  0  0  0  0  0  0  0  0  0  0
    0.9099   -3.7247    0.3022 C   0  0  0  0  0  0  0  0  0  0  0  0
    4.3344   -4.8610   -0.1541 O   0  0  0  0  0  0  0  0  0  0  0  0
    4.2937   -5.9581    0.7605 C   0  0  0  0  0  0  0  0  0  0  0  0
    5.6556   -6.6550    0.7820 C   0  0  0  0  0  0  0  0  0  0  0  0
    5.6120   -7.8297    1.7614 C   0  0  0  0  0  0  0  0  0  0  0  0
    6.8840   -8.4806    1.7814 O   0  0  0  0  0  0  0  0  0  0  0  0
    7.0155   -9.5527    2.6061 C   0  0  0  0  0  0  0  0  0  0  0  0
    5.9410   -9.9738    3.3764 C   0  0  0  0  0  0  0  0  0  0  0  0
    6.0795  -11.0631    4.2123 C   0  0  0  0  0  0  0  0  0  0  0  0
    7.2871  -11.7380    4.2865 C   0  0  0  0  0  0  0  0  0  0  0  0
    8.3593  -11.3202    3.5200 C   0  0  0  0  0  0  0  0  0  0  0  0
    8.2216  -10.2319    2.6759 C   0  0  0  0  0  0  0  0  0  0  0  0
    9.5529  -12.2144    3.7794 C   0  0  0  0  0  0  0  0  0  0  0  0
    9.2309  -12.9451    5.1001 C   0  0  0  0  0  0  0  0  0  0  0  0
    7.6875  -12.9417    5.1129 C   0  0  1  0  0  0  0  0  0  0  0  0
    7.3035  -13.8559    4.6602 H   0  0  0  0  0  0  0  0  0  0  0  0
    7.1687  -12.7986    6.5451 C   0  0  0  0  0  0  0  0  0  0  0  0
    7.4546  -14.0642    7.3117 C   0  0  0  0  0  0  0  0  0  0  0  0
    7.9247  -15.0316    6.7376 O   0  0  0  0  0  0  0  0  0  0  0  0
    7.2158  -14.1206    8.5060 O   0  5  0  0  0  0  0  0  0  0  0  0
    1.7650    2.0302   -0.1544 H   0  0  0  0  0  0  0  0  0  0  0  0
    0.3826    2.0343   -1.2757 H   0  0  0  0  0  0  0  0  0  0  0  0
    0.1049    1.9240    0.4790 H   0  0  0  0  0  0  0  0  0  0  0  0
   -1.6524   -3.5453   -1.0352 H   0  0  0  0  0  0  0  0  0  0  0  0
   -4.8599   -0.9853   -2.3020 H   0  0  0  0  0  0  0  0  0  0  0  0
   -5.1411   -1.0880   -0.5474 H   0  0  0  0  0  0  0  0  0  0  0  0
   -5.7891    0.2869   -1.4736 H   0  0  0  0  0  0  0  0  0  0  0  0
    1.9932   -1.4700   -1.9887 H   0  0  0  0  0  0  0  0  0  0  0  0
    4.0504   -2.7929   -1.7323 H   0  0  0  0  0  0  0  0  0  0  0  0
    2.0899   -5.3069    1.1153 H   0  0  0  0  0  0  0  0  0  0  0  0
    0.0310   -3.9837    0.8738 H   0  0  0  0  0  0  0  0  0  0  0  0
    4.0581   -5.5901    1.7591 H   0  0  0  0  0  0  0  0  0  0  0  0
    3.5280   -6.6665    0.4444 H   0  0  0  0  0  0  0  0  0  0  0  0
    5.8912   -7.0230   -0.2166 H   0  0  0  0  0  0  0  0  0  0  0  0
    6.4213   -5.9466    1.0982 H   0  0  0  0  0  0  0  0  0  0  0  0
    5.3764   -7.4617    2.7599 H   0  0  0  0  0  0  0  0  0  0  0  0
    4.8463   -8.5381    1.4452 H   0  0  0  0  0  0  0  0  0  0  0  0
    4.9982   -9.4499    3.3221 H   0  0  0  0  0  0  0  0  0  0  0  0
    5.2429  -11.3906    4.8117 H   0  0  0  0  0  0  0  0  0  0  0  0
    9.0576   -9.9084    2.0735 H   0  0  0  0  0  0  0  0  0  0  0  0
    9.6704  -12.9332    2.9684 H   0  0  0  0  0  0  0  0  0  0  0  0
   10.4572  -11.6158    3.8891 H   0  0  0  0  0  0  0  0  0  0  0  0
    9.6159  -13.9647    5.0827 H   0  0  0  0  0  0  0  0  0  0  0  0
    9.6266  -12.3949    5.9538 H   0  0  0  0  0  0  0  0  0  0  0  0
    7.6675  -11.9595    7.0301 H   0  0  0  0  0  0  0  0  0  0  0  0
    6.0936  -12.6204    6.5260 H   0  0  0  0  0  0  0  0  0  0  0  0
  1  2  1  0  0  0  0
  1 36  1  0  0  0  0
  1 37  1  0  0  0  0
  1 38  1  0  0  0  0
  2  3  1  0  0  0  0
  3  8  2  0  0  0  0
  3  4  1  0  0  0  0
  4  5  2  0  0  0  0
  4 11  1  0  0  0  0
  5  6  1  0  0  0  0
  5 39  1  0  0  0  0
  6  7  2  0  0  0  0
  7  8  1  0  0  0  0
  7  9  1  0  0  0  0
  9 10  1  0  0  0  0
 10 40  1  0  0  0  0
 10 41  1  0  0  0  0
 10 42  1  0  0  0  0
 11 16  2  0  0  0  0
 11 12  1  0  0  0  0
 12 13  2  0  0  0  0
 12 43  1  0  0  0  0
 13 14  1  0  0  0  0
 13 44  1  0  0  0  0
 14 15  2  0  0  0  0
 14 17  1  0  0  0  0
 15 16  1  0  0  0  0
 15 45  1  0  0  0  0
 16 46  1  0  0  0  0
 17 18  1  0  0  0  0
 18 19  1  0  0  0  0
 18 47  1  0  0  0  0
 18 48  1  0  0  0  0
 19 20  1  0  0  0  0
 19 49  1  0  0  0  0
 19 50  1  0  0  0  0
 20 21  1  0  0  0  0
 20 51  1  0  0  0  0
 20 52  1  0  0  0  0
 21 22  1  0  0  0  0
 22 27  2  0  0  0  0
 22 23  1  0  0  0  0
 23 24  2  0  0  0  0
 23 53  1  0  0  0  0
 24 25  1  0  0  0  0
 24 54  1  0  0  0  0
 25 30  1  0  0  0  0
 25 26  2  0  0  0  0
 26 27  1  0  0  0  0
 26 28  1  0  0  0  0
 27 55  1  0  0  0  0
 28 29  1  0  0  0  0
 28 56  1  0  0  0  0
 28 57  1  0  0  0  0
 29 30  1  0  0  0  0
 29 58  1  0  0  0  0
 29 59  1  0  0  0  0
 30 31  1  6  0  0  0
 30 32  1  0  0  0  0
 32 33  1  0  0  0  0
 32 60  1  0  0  0  0
 32 61  1  0  0  0  0
 33 34  2  0  0  0  0
 33 35  1  0  0  0  0
M  CHG  1  35  -1
M  END
$$$$
