CHEMBL400024
 OpenBabel05272217113D

 59 61  0  0  1  0  0  0  0  0999 V2000
   -0.0025    1.4958    0.2721 C   0  0  0  0  0  0  0  0  0  0  0  0
    0.0042   -0.0100    0.0011 C   0  0  0  0  0  0  0  0  0  0  0  0
   -1.4106   -0.5287    0.0122 C   0  0  0  0  0  0  0  0  0  0  0  0
   -1.9730   -0.9723    1.1967 C   0  0  0  0  0  0  0  0  0  0  0  0
   -3.2696   -1.4500    1.2184 C   0  0  0  0  0  0  0  0  0  0  0  0
   -4.0156   -1.4870    0.0514 C   0  0  0  0  0  0  0  0  0  0  0  0
   -3.4506   -1.0387   -1.1486 C   0  0  0  0  0  0  0  0  0  0  0  0
   -2.1421   -0.5541   -1.1570 C   0  0  0  0  0  0  0  0  0  0  0  0
   -4.2376   -1.0738   -2.3989 C   0  0  0  0  0  0  0  0  0  0  0  0
   -5.4833   -1.4821   -2.5979 N   0  0  0  0  0  0  0  0  0  0  0  0
   -6.0307   -1.4426   -3.7906 C   0  0  0  0  0  0  0  0  0  0  0  0
   -5.3165   -0.9763   -4.8486 C   0  0  0  0  0  0  0  0  0  0  0  0
   -3.7691   -0.5700   -4.0492 S   0  0  0  0  0  0  0  0  0  0  0  0
   -5.2899   -1.9566    0.0714 O   0  0  0  0  0  0  0  0  0  0  0  0
   -5.8406   -2.2839    1.3488 C   0  0  2  0  0  0  0  0  0  0  0  0
   -5.4624   -1.5871    2.0968 H   0  0  0  0  0  0  0  0  0  0  0  0
   -5.4355   -3.7095    1.7287 C   0  0  0  0  0  0  0  0  0  0  0  0
   -7.3663   -2.1867    1.2864 C   0  0  0  0  0  0  0  0  0  0  0  0
   -7.7747   -0.7348    1.0295 C   0  0  0  0  0  0  0  0  0  0  0  0
   -9.1996   -0.6440    0.9712 O   0  0  0  0  0  0  0  0  0  0  0  0
   -9.7308    0.5868    0.7478 C   0  0  0  0  0  0  0  0  0  0  0  0
   -8.8974    1.6837    0.5823 C   0  0  0  0  0  0  0  0  0  0  0  0
   -9.4398    2.9335    0.3549 C   0  0  0  0  0  0  0  0  0  0  0  0
  -10.8121    3.0921    0.2922 C   0  0  0  0  0  0  0  0  0  0  0  0
  -11.6446    2.0008    0.4573 C   0  0  0  0  0  0  0  0  0  0  0  0
  -11.1069    0.7476    0.6793 C   0  0  0  0  0  0  0  0  0  0  0  0
  -13.1397    2.1772    0.3888 C   0  0  0  0  0  0  0  0  0  0  0  0
  -11.4011    4.4568    0.0440 C   0  0  0  0  0  0  0  0  0  0  0  0
  -11.7529    5.1114    1.3814 C   0  0  0  0  0  0  0  0  0  0  0  0
  -12.3419    6.4761    1.1332 C   0  0  0  0  0  0  0  0  0  0  0  0
  -12.4686    6.8871   -0.0076 O   0  0  0  0  0  0  0  0  0  0  0  0
  -12.6918    7.1692    2.0732 O   0  5  0  0  0  0  0  0  0  0  0  0
    1.0209    1.8710    0.2641 H   0  0  0  0  0  0  0  0  0  0  0  0
   -0.5809    2.0016   -0.5010 H   0  0  0  0  0  0  0  0  0  0  0  0
   -0.4522    1.6877    1.2463 H   0  0  0  0  0  0  0  0  0  0  0  0
    0.4539   -0.2018   -0.9731 H   0  0  0  0  0  0  0  0  0  0  0  0
    0.5827   -0.5157    0.7742 H   0  0  0  0  0  0  0  0  0  0  0  0
   -1.3952   -0.9454    2.1088 H   0  0  0  0  0  0  0  0  0  0  0  0
   -3.7017   -1.7952    2.1460 H   0  0  0  0  0  0  0  0  0  0  0  0
   -1.7013   -0.2033   -2.0784 H   0  0  0  0  0  0  0  0  0  0  0  0
   -7.0469   -1.7804   -3.9307 H   0  0  0  0  0  0  0  0  0  0  0  0
   -5.6051   -0.8748   -5.8844 H   0  0  0  0  0  0  0  0  0  0  0  0
   -4.3486   -3.7788    1.7731 H   0  0  0  0  0  0  0  0  0  0  0  0
   -5.8556   -3.9592    2.7030 H   0  0  0  0  0  0  0  0  0  0  0  0
   -5.8137   -4.4063    0.9806 H   0  0  0  0  0  0  0  0  0  0  0  0
   -7.7378   -2.8170    0.4785 H   0  0  0  0  0  0  0  0  0  0  0  0
   -7.7907   -2.5215    2.2329 H   0  0  0  0  0  0  0  0  0  0  0  0
   -7.4032   -0.1044    1.8374 H   0  0  0  0  0  0  0  0  0  0  0  0
   -7.3503   -0.4000    0.0829 H   0  0  0  0  0  0  0  0  0  0  0  0
   -7.8256    1.5605    0.6315 H   0  0  0  0  0  0  0  0  0  0  0  0
   -8.7915    3.7877    0.2263 H   0  0  0  0  0  0  0  0  0  0  0  0
  -11.7575   -0.1054    0.8037 H   0  0  0  0  0  0  0  0  0  0  0  0
  -13.4742    2.0468   -0.6403 H   0  0  0  0  0  0  0  0  0  0  0  0
  -13.6226    1.4352    1.0247 H   0  0  0  0  0  0  0  0  0  0  0  0
  -13.4036    3.1773    0.7327 H   0  0  0  0  0  0  0  0  0  0  0  0
  -10.6751    5.0754   -0.4835 H   0  0  0  0  0  0  0  0  0  0  0  0
  -12.3026    4.3589   -0.5609 H   0  0  0  0  0  0  0  0  0  0  0  0
  -12.4790    4.4927    1.9089 H   0  0  0  0  0  0  0  0  0  0  0  0
  -10.8514    5.2092    1.9863 H   0  0  0  0  0  0  0  0  0  0  0  0
  1  2  1  0  0  0  0
  1 33  1  0  0  0  0
  1 34  1  0  0  0  0
  1 35  1  0  0  0  0
  2  3  1  0  0  0  0
  2 36  1  0  0  0  0
  2 37  1  0  0  0  0
  3  8  2  0  0  0  0
  3  4  1  0  0  0  0
  4  5  2  0  0  0  0
  4 38  1  0  0  0  0
  5  6  1  0  0  0  0
  5 39  1  0  0  0  0
  6  7  2  0  0  0  0
  6 14  1  0  0  0  0
  7  8  1  0  0  0  0
  7  9  1  0  0  0  0
  8 40  1  0  0  0  0
  9 13  1  0  0  0  0
  9 10  2  0  0  0  0
 10 11  1  0  0  0  0
 11 12  2  0  0  0  0
 11 41  1  0  0  0  0
 12 13  1  0  0  0  0
 12 42  1  0  0  0  0
 14 15  1  0  0  0  0
 15 16  1  1  0  0  0
 15 17  1  0  0  0  0
 15 18  1  0  0  0  0
 17 43  1  0  0  0  0
 17 44  1  0  0  0  0
 17 45  1  0  0  0  0
 18 19  1  0  0  0  0
 18 46  1  0  0  0  0
 18 47  1  0  0  0  0
 19 20  1  0  0  0  0
 19 48  1  0  0  0  0
 19 49  1  0  0  0  0
 20 21  1  0  0  0  0
 21 26  2  0  0  0  0
 21 22  1  0  0  0  0
 22 23  2  0  0  0  0
 22 50  1  0  0  0  0
 23 24  1  0  0  0  0
 23 51  1  0  0  0  0
 24 25  2  0  0  0  0
 24 28  1  0  0  0  0
 25 26  1  0  0  0  0
 25 27  1  0  0  0  0
 26 52  1  0  0  0  0
 27 53  1  0  0  0  0
 27 54  1  0  0  0  0
 27 55  1  0  0  0  0
 28 29  1  0  0  0  0
 28 56  1  0  0  0  0
 28 57  1  0  0  0  0
 29 30  1  0  0  0  0
 29 58  1  0  0  0  0
 29 59  1  0  0  0  0
 30 31  2  0  0  0  0
 30 32  1  0  0  0  0
M  CHG  1  32  -1
M  END
$$$$
