CHEMBL219944
 OpenBabel05272217113D

 54 57  0  0  1  0  0  0  0  0999 V2000
    0.1046    2.7137    0.0383 C   0  0  0  0  0  0  0  0  0  0  0  0
    1.3470    3.3140    0.1526 C   0  0  0  0  0  0  0  0  0  0  0  0
    2.4845    2.5120    0.0275 C   0  0  0  0  0  0  0  0  0  0  0  0
    2.3247    1.1475   -0.2060 C   0  0  0  0  0  0  0  0  0  0  0  0
    1.1216    0.6212   -0.3078 N   0  0  0  0  0  0  0  0  0  0  0  0
    0.0298    1.3527   -0.1938 C   0  0  0  0  0  0  0  0  0  0  0  0
    3.8403    3.1037    0.1409 C   0  0  0  0  0  0  0  0  0  0  0  0
    3.9886    4.4688    0.3798 C   0  0  0  0  0  0  0  0  0  0  0  0
    5.2501    5.0160    0.4848 C   0  0  0  0  0  0  0  0  0  0  0  0
    6.3717    4.2086    0.3527 C   0  0  0  0  0  0  0  0  0  0  0  0
    6.2271    2.8485    0.1142 C   0  0  0  0  0  0  0  0  0  0  0  0
    4.9681    2.2946    0.0145 C   0  0  0  0  0  0  0  0  0  0  0  0
    7.6134    4.7505    0.4565 O   0  0  0  0  0  0  0  0  0  0  0  0
    8.7232    3.8622    0.3103 C   0  0  0  0  0  0  0  0  0  0  0  0
   10.0279    4.6478    0.4571 C   0  0  0  0  0  0  0  0  0  0  0  0
   11.2162    3.6968    0.3005 C   0  0  0  0  0  0  0  0  0  0  0  0
   12.4348    4.4305    0.4376 O   0  0  0  0  0  0  0  0  0  0  0  0
   13.5933    3.7292    0.3243 C   0  0  0  0  0  0  0  0  0  0  0  0
   13.5589    2.3637    0.0804 C   0  0  0  0  0  0  0  0  0  0  0  0
   14.7380    1.6559   -0.0339 C   0  0  0  0  0  0  0  0  0  0  0  0
   15.9565    2.3026    0.0943 C   0  0  0  0  0  0  0  0  0  0  0  0
   15.9934    3.6631    0.3375 C   0  0  0  0  0  0  0  0  0  0  0  0
   14.8125    4.3769    0.4464 C   0  0  0  0  0  0  0  0  0  0  0  0
   17.4312    4.1266    0.4355 C   0  0  0  0  0  0  0  0  0  0  0  0
   18.2553    2.8414    0.6623 C   0  0  0  0  0  0  0  0  0  0  0  0
   17.3672    1.7594    0.0122 C   0  0  1  0  0  0  0  0  0  0  0  0
   17.6548    1.6092   -1.0284 H   0  0  0  0  0  0  0  0  0  0  0  0
   17.4764    0.4458    0.7891 C   0  0  0  0  0  0  0  0  0  0  0  0
   18.8451   -0.1491    0.5803 C   0  0  0  0  0  0  0  0  0  0  0  0
   19.6207    0.3672   -0.2061 O   0  0  0  0  0  0  0  0  0  0  0  0
   19.1769   -1.1468    1.1976 O   0  5  0  0  0  0  0  0  0  0  0  0
   -0.7964    3.3015    0.1339 H   0  0  0  0  0  0  0  0  0  0  0  0
    1.4348    4.3751    0.3335 H   0  0  0  0  0  0  0  0  0  0  0  0
    3.1952    0.5159   -0.3048 H   0  0  0  0  0  0  0  0  0  0  0  0
   -0.9377    0.8812   -0.2834 H   0  0  0  0  0  0  0  0  0  0  0  0
    3.1165    5.0975    0.4823 H   0  0  0  0  0  0  0  0  0  0  0  0
    5.3657    6.0738    0.6695 H   0  0  0  0  0  0  0  0  0  0  0  0
    7.1015    2.2229    0.0112 H   0  0  0  0  0  0  0  0  0  0  0  0
    4.8562    1.2357   -0.1662 H   0  0  0  0  0  0  0  0  0  0  0  0
    8.6750    3.0910    1.0790 H   0  0  0  0  0  0  0  0  0  0  0  0
    8.6884    3.3964   -0.6745 H   0  0  0  0  0  0  0  0  0  0  0  0
   10.0761    5.4191   -0.3116 H   0  0  0  0  0  0  0  0  0  0  0  0
   10.0627    5.1137    1.4419 H   0  0  0  0  0  0  0  0  0  0  0  0
   11.1680    2.9255    1.0692 H   0  0  0  0  0  0  0  0  0  0  0  0
   11.1814    3.2309   -0.6843 H   0  0  0  0  0  0  0  0  0  0  0  0
   12.6110    1.8557   -0.0195 H   0  0  0  0  0  0  0  0  0  0  0  0
   14.7108    0.5930   -0.2238 H   0  0  0  0  0  0  0  0  0  0  0  0
   14.8411    5.4405    0.6314 H   0  0  0  0  0  0  0  0  0  0  0  0
   17.7359    4.6126   -0.4913 H   0  0  0  0  0  0  0  0  0  0  0  0
   17.5525    4.8073    1.2782 H   0  0  0  0  0  0  0  0  0  0  0  0
   19.2196    2.9055    0.1583 H   0  0  0  0  0  0  0  0  0  0  0  0
   18.3855    2.6475    1.7270 H   0  0  0  0  0  0  0  0  0  0  0  0
   17.3218    0.6378    1.8509 H   0  0  0  0  0  0  0  0  0  0  0  0
   16.7187   -0.2516    0.4319 H   0  0  0  0  0  0  0  0  0  0  0  0
  1  6  2  0  0  0  0
  1  2  1  0  0  0  0
  1 32  1  0  0  0  0
  2  3  2  0  0  0  0
  2 33  1  0  0  0  0
  3  4  1  0  0  0  0
  3  7  1  0  0  0  0
  4  5  2  0  0  0  0
  4 34  1  0  0  0  0
  5  6  1  0  0  0  0
  6 35  1  0  0  0  0
  7 12  2  0  0  0  0
  7  8  1  0  0  0  0
  8  9  2  0  0  0  0
  8 36  1  0  0  0  0
  9 10  1  0  0  0  0
  9 37  1  0  0  0  0
 10 11  2  0  0  0  0
 10 13  1  0  0  0  0
 11 12  1  0  0  0  0
 11 38  1  0  0  0  0
 12 39  1  0  0  0  0
 13 14  1  0  0  0  0
 14 15  1  0  0  0  0
 14 40  1  0  0  0  0
 14 41  1  0  0  0  0
 15 16  1  0  0  0  0
 15 42  1  0  0  0  0
 15 43  1  0  0  0  0
 16 17  1  0  0  0  0
 16 44  1  0  0  0  0
 16 45  1  0  0  0  0
 17 18  1  0  0  0  0
 18 23  2  0  0  0  0
 18 19  1  0  0  0  0
 19 20  2  0  0  0  0
 19 46  1  0  0  0  0
 20 21  1  0  0  0  0
 20 47  1  0  0  0  0
 21 26  1  0  0  0  0
 21 22  2  0  0  0  0
 22 23  1  0  0  0  0
 22 24  1  0  0  0  0
 23 48  1  0  0  0  0
 24 25  1  0  0  0  0
 24 49  1  0  0  0  0
 24 50  1  0  0  0  0
 25 26  1  0  0  0  0
 25 51  1  0  0  0  0
 25 52  1  0  0  0  0
 26 27  1  6  0  0  0
 26 28  1  0  0  0  0
 28 29  1  0  0  0  0
 28 53  1  0  0  0  0
 28 54  1  0  0  0  0
 29 30  2  0  0  0  0
 29 31  1  0  0  0  0
M  CHG  1  31  -1
M  END
$$$$
