CHEMBL234801
 OpenBabel05272217113D

 37 39  0  0  0  0  0  0  0  0999 V2000
   -0.0184    1.5028    0.0103 C   0  0  0  0  0  0  0  0  0  0  0  0
    0.0021   -0.0041    0.0020 C   0  0  0  0  0  0  0  0  0  0  0  0
    0.0059   -0.7076   -1.1591 C   0  0  0  0  0  0  0  0  0  0  0  0
    0.0324   -2.3789   -0.5312 S   0  0  0  0  0  0  0  0  0  0  0  0
    0.0357   -2.0088    1.1107 C   0  0  0  0  0  0  0  0  0  0  0  0
    0.0226   -0.6992    1.1217 N   0  0  0  0  0  0  0  0  0  0  0  0
    0.0549   -2.9548    2.2837 C   0  0  0  0  0  0  0  0  0  0  0  0
   -0.0641   -2.2264    3.4722 F   0  0  0  0  0  0  0  0  0  0  0  0
   -1.0138   -3.8514    2.1772 F   0  0  0  0  0  0  0  0  0  0  0  0
    1.2603   -3.6647    2.2905 F   0  0  0  0  0  0  0  0  0  0  0  0
   -0.0083   -0.2146   -2.5831 C   0  0  0  0  0  0  0  0  0  0  0  0
    1.3344   -0.0400   -3.0402 O   0  0  0  0  0  0  0  0  0  0  0  0
    1.4998    0.4035   -4.3150 C   0  0  0  0  0  0  0  0  0  0  0  0
    0.3855    0.6702   -5.1066 C   0  0  0  0  0  0  0  0  0  0  0  0
    0.5350    1.1202   -6.3992 C   0  0  0  0  0  0  0  0  0  0  0  0
    1.8081    1.3125   -6.9257 C   0  0  0  0  0  0  0  0  0  0  0  0
    2.9353    1.0440   -6.1290 C   0  0  0  0  0  0  0  0  0  0  0  0
    2.7716    0.5929   -4.8173 C   0  0  0  0  0  0  0  0  0  0  0  0
    4.1018    1.3423   -6.9633 C   0  0  0  0  0  0  0  0  0  0  0  0
    3.6385    1.7527   -8.1546 C   0  0  0  0  0  0  0  0  0  0  0  0
    2.2705    1.7417   -8.1519 N   0  0  0  0  0  0  0  0  0  0  0  0
    1.4234    2.1276   -9.2831 C   0  0  0  0  0  0  0  0  0  0  0  0
    1.0212    3.5729   -9.1395 C   0  0  0  0  0  0  0  0  0  0  0  0
    1.4066    4.2205   -8.1811 O   0  0  0  0  0  0  0  0  0  0  0  0
    0.3106    4.0945   -9.9817 O   0  5  0  0  0  0  0  0  0  0  0  0
    1.0042    1.8801    0.0026 H   0  0  0  0  0  0  0  0  0  0  0  0
   -0.5455    1.8639   -0.8728 H   0  0  0  0  0  0  0  0  0  0  0  0
   -0.5286    1.8543    0.9071 H   0  0  0  0  0  0  0  0  0  0  0  0
   -0.5152   -0.9438   -3.2150 H   0  0  0  0  0  0  0  0  0  0  0  0
   -0.5357    0.7380   -2.6326 H   0  0  0  0  0  0  0  0  0  0  0  0
   -0.6052    0.5224   -4.7029 H   0  0  0  0  0  0  0  0  0  0  0  0
   -0.3361    1.3236   -7.0044 H   0  0  0  0  0  0  0  0  0  0  0  0
    3.6349    0.3895   -4.2011 H   0  0  0  0  0  0  0  0  0  0  0  0
    5.1384    1.2502   -6.6745 H   0  0  0  0  0  0  0  0  0  0  0  0
    4.2545    2.0477   -8.9911 H   0  0  0  0  0  0  0  0  0  0  0  0
    1.9764    1.9950  -10.2130 H   0  0  0  0  0  0  0  0  0  0  0  0
    0.5309    1.5020   -9.2987 H   0  0  0  0  0  0  0  0  0  0  0  0
  1  2  1  0  0  0  0
  1 26  1  0  0  0  0
  1 27  1  0  0  0  0
  1 28  1  0  0  0  0
  2  6  1  0  0  0  0
  2  3  2  0  0  0  0
  3  4  1  0  0  0  0
  3 11  1  0  0  0  0
  4  5  1  0  0  0  0
  5  6  2  0  0  0  0
  5  7  1  0  0  0  0
  7  8  1  0  0  0  0
  7  9  1  0  0  0  0
  7 10  1  0  0  0  0
 11 12  1  0  0  0  0
 11 29  1  0  0  0  0
 11 30  1  0  0  0  0
 12 13  1  0  0  0  0
 13 18  2  0  0  0  0
 13 14  1  0  0  0  0
 14 15  2  0  0  0  0
 14 31  1  0  0  0  0
 15 16  1  0  0  0  0
 15 32  1  0  0  0  0
 16 21  1  0  0  0  0
 16 17  2  0  0  0  0
 17 18  1  0  0  0  0
 17 19  1  0  0  0  0
 18 33  1  0  0  0  0
 19 20  2  0  0  0  0
 19 34  1  0  0  0  0
 20 21  1  0  0  0  0
 20 35  1  0  0  0  0
 21 22  1  0  0  0  0
 22 23  1  0  0  0  0
 22 36  1  0  0  0  0
 22 37  1  0  0  0  0
 23 24  2  0  0  0  0
 23 25  1  0  0  0  0
M  CHG  1  25  -1
M  END
$$$$
