CHEMBL221101
 OpenBabel05272217113D

 58 62  0  0  1  0  0  0  0  0999 V2000
    0.1780    2.4489    0.3970 C   0  0  0  0  0  0  0  0  0  0  0  0
    1.4085    3.0610    0.5033 C   0  0  0  0  0  0  0  0  0  0  0  0
    2.5715    2.3128    0.3766 C   0  0  0  0  0  0  0  0  0  0  0  0
    2.5000    0.9457    0.1428 C   0  0  0  0  0  0  0  0  0  0  0  0
    1.2734    0.3262    0.0356 C   0  0  0  0  0  0  0  0  0  0  0  0
    0.1020    1.0750    0.1620 C   0  0  0  0  0  0  0  0  0  0  0  0
   -1.2155    0.4145    0.0478 C   0  0  0  0  0  0  0  0  0  0  0  0
   -2.4244    0.9359    0.1298 N   0  0  0  0  0  0  0  0  0  0  0  0
   -3.5345    0.2011    0.0035 C   0  0  0  0  0  0  0  0  0  0  0  0
   -3.3725   -1.1297   -0.2126 C   0  0  0  0  0  0  0  0  0  0  0  0
   -1.6022   -1.3059   -0.2467 S   0  0  0  0  0  0  0  0  0  0  0  0
   -4.6800   -1.8513   -0.3290 C   0  0  0  0  0  0  0  0  0  0  0  0
   -5.7187   -0.8738    0.2654 C   0  0  0  0  0  0  0  0  0  0  0  0
   -5.0373    0.4898    0.0376 C   0  0  0  0  0  0  0  0  0  0  0  0
    3.7824    2.9198    0.4811 O   0  0  0  0  0  0  0  0  0  0  0  0
    4.9379    2.0910    0.3406 C   0  0  0  0  0  0  0  0  0  0  0  0
    6.1990    2.9449    0.4873 C   0  0  0  0  0  0  0  0  0  0  0  0
    7.4362    2.0574    0.3368 C   0  0  0  0  0  0  0  0  0  0  0  0
    8.6140    2.8549    0.4738 O   0  0  0  0  0  0  0  0  0  0  0  0
    9.8082    2.2154    0.3656 C   0  0  0  0  0  0  0  0  0  0  0  0
    9.8465    0.8492    0.1267 C   0  0  0  0  0  0  0  0  0  0  0  0
   11.0617    0.2042    0.0176 C   0  0  0  0  0  0  0  0  0  0  0  0
   12.2440    0.9149    0.1461 C   0  0  0  0  0  0  0  0  0  0  0  0
   12.2084    2.2763    0.3843 C   0  0  0  0  0  0  0  0  0  0  0  0
   10.9912    2.9271    0.4880 C   0  0  0  0  0  0  0  0  0  0  0  0
   13.6194    2.8154    0.4838 C   0  0  0  0  0  0  0  0  0  0  0  0
   14.5097    1.5764    0.7171 C   0  0  0  0  0  0  0  0  0  0  0  0
   13.6817    0.4466    0.0691 C   0  0  1  0  0  0  0  0  0  0  0  0
   13.9792    0.3081   -0.9703 H   0  0  0  0  0  0  0  0  0  0  0  0
   13.8582   -0.8565    0.8511 C   0  0  0  0  0  0  0  0  0  0  0  0
   15.2569   -1.3791    0.6474 C   0  0  0  0  0  0  0  0  0  0  0  0
   16.0060   -0.8253   -0.1391 O   0  0  0  0  0  0  0  0  0  0  0  0
   15.6394   -2.3556    1.2692 O   0  5  0  0  0  0  0  0  0  0  0  0
   -0.7260    3.0307    0.4997 H   0  0  0  0  0  0  0  0  0  0  0  0
    1.4681    4.1239    0.6851 H   0  0  0  0  0  0  0  0  0  0  0  0
    3.4067    0.3673    0.0444 H   0  0  0  0  0  0  0  0  0  0  0  0
    1.2186   -0.7369   -0.1465 H   0  0  0  0  0  0  0  0  0  0  0  0
   -4.9080   -2.0587   -1.3745 H   0  0  0  0  0  0  0  0  0  0  0  0
   -4.6560   -2.7767    0.2466 H   0  0  0  0  0  0  0  0  0  0  0  0
   -6.6633   -0.9327   -0.2754 H   0  0  0  0  0  0  0  0  0  0  0  0
   -5.8676   -1.0624    1.3286 H   0  0  0  0  0  0  0  0  0  0  0  0
   -5.2716    1.1692    0.8571 H   0  0  0  0  0  0  0  0  0  0  0  0
   -5.3600    0.9182   -0.9114 H   0  0  0  0  0  0  0  0  0  0  0  0
    4.9287    1.3210    1.1120 H   0  0  0  0  0  0  0  0  0  0  0  0
    4.9301    1.6204   -0.6426 H   0  0  0  0  0  0  0  0  0  0  0  0
    6.2081    3.7148   -0.2842 H   0  0  0  0  0  0  0  0  0  0  0  0
    6.2068    3.4155    1.4704 H   0  0  0  0  0  0  0  0  0  0  0  0
    7.4270    1.2874    1.1082 H   0  0  0  0  0  0  0  0  0  0  0  0
    7.4284    1.5868   -0.6464 H   0  0  0  0  0  0  0  0  0  0  0  0
    8.9271    0.2914    0.0267 H   0  0  0  0  0  0  0  0  0  0  0  0
   11.0911   -0.8592   -0.1684 H   0  0  0  0  0  0  0  0  0  0  0  0
   10.9632    3.9914    0.6692 H   0  0  0  0  0  0  0  0  0  0  0  0
   13.9003    3.3136   -0.4442 H   0  0  0  0  0  0  0  0  0  0  0  0
   13.7026    3.5046    1.3241 H   0  0  0  0  0  0  0  0  0  0  0  0
   15.4705    1.6896    0.2149 H   0  0  0  0  0  0  0  0  0  0  0  0
   14.6475    1.3935    1.7828 H   0  0  0  0  0  0  0  0  0  0  0  0
   13.6912   -0.6692    1.9118 H   0  0  0  0  0  0  0  0  0  0  0  0
   13.1392   -1.5943    0.4949 H   0  0  0  0  0  0  0  0  0  0  0  0
  1  6  2  0  0  0  0
  1  2  1  0  0  0  0
  1 34  1  0  0  0  0
  2  3  2  0  0  0  0
  2 35  1  0  0  0  0
  3  4  1  0  0  0  0
  3 15  1  0  0  0  0
  4  5  2  0  0  0  0
  4 36  1  0  0  0  0
  5  6  1  0  0  0  0
  5 37  1  0  0  0  0
  6  7  1  0  0  0  0
  7 11  1  0  0  0  0
  7  8  2  0  0  0  0
  8  9  1  0  0  0  0
  9 14  1  0  0  0  0
  9 10  2  0  0  0  0
 10 11  1  0  0  0  0
 10 12  1  0  0  0  0
 12 13  1  0  0  0  0
 12 38  1  0  0  0  0
 12 39  1  0  0  0  0
 13 14  1  0  0  0  0
 13 40  1  0  0  0  0
 13 41  1  0  0  0  0
 14 42  1  0  0  0  0
 14 43  1  0  0  0  0
 15 16  1  0  0  0  0
 16 17  1  0  0  0  0
 16 44  1  0  0  0  0
 16 45  1  0  0  0  0
 17 18  1  0  0  0  0
 17 46  1  0  0  0  0
 17 47  1  0  0  0  0
 18 19  1  0  0  0  0
 18 48  1  0  0  0  0
 18 49  1  0  0  0  0
 19 20  1  0  0  0  0
 20 25  2  0  0  0  0
 20 21  1  0  0  0  0
 21 22  2  0  0  0  0
 21 50  1  0  0  0  0
 22 23  1  0  0  0  0
 22 51  1  0  0  0  0
 23 28  1  0  0  0  0
 23 24  2  0  0  0  0
 24 25  1  0  0  0  0
 24 26  1  0  0  0  0
 25 52  1  0  0  0  0
 26 27  1  0  0  0  0
 26 53  1  0  0  0  0
 26 54  1  0  0  0  0
 27 28  1  0  0  0  0
 27 55  1  0  0  0  0
 27 56  1  0  0  0  0
 28 29  1  6  0  0  0
 28 30  1  0  0  0  0
 30 31  1  0  0  0  0
 30 57  1  0  0  0  0
 30 58  1  0  0  0  0
 31 32  2  0  0  0  0
 31 33  1  0  0  0  0
M  CHG  1  33  -1
M  END
$$$$
