CHEMBL360992
 OpenBabel05272217113D

 50 52  0  0  1  0  0  0  0  0999 V2000
   -0.0187    1.5258    0.0104 C   0  0  0  0  0  0  0  0  0  0  0  0
    0.0021   -0.0041    0.0020 C   0  0  2  0  0  0  0  0  0  0  0  0
   -1.4346   -0.5404    0.0397 C   0  0  0  0  0  0  0  0  0  0  0  0
   -2.1423    0.0658    1.2540 C   0  0  0  0  0  0  0  0  0  0  0  0
   -1.2689   -0.0778    2.4748 C   0  0  0  0  0  0  0  0  0  0  0  0
   -1.8483    0.0527    3.7266 C   0  0  0  0  0  0  0  0  0  0  0  0
   -1.0809   -0.0688    4.8672 C   0  0  0  0  0  0  0  0  0  0  0  0
    0.2797   -0.3223    4.7625 C   0  0  0  0  0  0  0  0  0  0  0  0
    0.8618   -0.4546    3.5133 C   0  0  0  0  0  0  0  0  0  0  0  0
    0.0869   -0.3346    2.3649 C   0  0  0  0  0  0  0  0  0  0  0  0
    0.6920   -0.4821    1.1575 O   0  0  0  0  0  0  0  0  0  0  0  0
    1.0386   -0.4409    5.8836 O   0  0  0  0  0  0  0  0  0  0  0  0
    0.3703   -0.2931    7.1381 C   0  0  0  0  0  0  0  0  0  0  0  0
    1.3796   -0.4576    8.2761 C   0  0  0  0  0  0  0  0  0  0  0  0
    0.6642   -0.2993    9.6192 C   0  0  0  0  0  0  0  0  0  0  0  0
    1.6069   -0.4530   10.6821 O   0  0  0  0  0  0  0  0  0  0  0  0
    1.1305   -0.3404   11.9510 C   0  0  0  0  0  0  0  0  0  0  0  0
   -0.2169   -0.0930   12.1665 C   0  0  0  0  0  0  0  0  0  0  0  0
   -0.7010    0.0209   13.4552 C   0  0  0  0  0  0  0  0  0  0  0  0
    0.1603   -0.1115   14.5344 C   0  0  0  0  0  0  0  0  0  0  0  0
    1.5079   -0.3589   14.3199 C   0  0  0  0  0  0  0  0  0  0  0  0
    1.9917   -0.4787   13.0305 C   0  0  0  0  0  0  0  0  0  0  0  0
    3.6772   -0.7955   12.7614 Cl  0  0  0  0  0  0  0  0  0  0  0  0
   -0.3166    0.0016   15.8028 O   0  0  0  0  0  0  0  0  0  0  0  0
    0.6266   -0.1459   16.8661 C   0  0  0  0  0  0  0  0  0  0  0  0
    1.6186    0.8335   16.7488 F   0  0  0  0  0  0  0  0  0  0  0  0
   -0.0284   -0.0015   18.0938 F   0  0  0  0  0  0  0  0  0  0  0  0
    1.2129   -1.4142   16.7967 F   0  0  0  0  0  0  0  0  0  0  0  0
    0.6955   -0.4953   -1.2425 C   0  0  0  0  0  0  0  0  0  0  0  0
    1.6969   -1.1847   -1.1506 O   0  0  0  0  0  0  0  0  0  0  0  0
    0.2551   -0.2034   -2.3413 O   0  5  0  0  0  0  0  0  0  0  0  0
    1.0039    1.9031    0.0027 H   0  0  0  0  0  0  0  0  0  0  0  0
   -0.5459    1.8868   -0.8726 H   0  0  0  0  0  0  0  0  0  0  0  0
   -0.5289    1.8773    0.9072 H   0  0  0  0  0  0  0  0  0  0  0  0
   -1.9582   -0.2529   -0.8721 H   0  0  0  0  0  0  0  0  0  0  0  0
   -1.4190   -1.6267    0.1280 H   0  0  0  0  0  0  0  0  0  0  0  0
   -2.3376    1.1223    1.0700 H   0  0  0  0  0  0  0  0  0  0  0  0
   -3.0862   -0.4533    1.4203 H   0  0  0  0  0  0  0  0  0  0  0  0
   -2.9067    0.2504    3.8102 H   0  0  0  0  0  0  0  0  0  0  0  0
   -1.5386    0.0336    5.8400 H   0  0  0  0  0  0  0  0  0  0  0  0
    1.9205   -0.6513    3.4305 H   0  0  0  0  0  0  0  0  0  0  0  0
   -0.0823    0.6969    7.1942 H   0  0  0  0  0  0  0  0  0  0  0  0
   -0.4058   -1.0531    7.2280 H   0  0  0  0  0  0  0  0  0  0  0  0
    1.8323   -1.4476    8.2200 H   0  0  0  0  0  0  0  0  0  0  0  0
    2.1558    0.3024    8.1861 H   0  0  0  0  0  0  0  0  0  0  0  0
    0.2115    0.6906    9.6753 H   0  0  0  0  0  0  0  0  0  0  0  0
   -0.1120   -1.0593    9.7092 H   0  0  0  0  0  0  0  0  0  0  0  0
   -0.8878    0.0109   11.3265 H   0  0  0  0  0  0  0  0  0  0  0  0
   -1.7505    0.2135   13.6226 H   0  0  0  0  0  0  0  0  0  0  0  0
    2.1785   -0.4620   15.1602 H   0  0  0  0  0  0  0  0  0  0  0  0
  1  2  1  0  0  0  0
  1 32  1  0  0  0  0
  1 33  1  0  0  0  0
  1 34  1  0  0  0  0
  2 11  1  0  0  0  0
  2  3  1  0  0  0  0
  2 29  1  6  0  0  0
  3  4  1  0  0  0  0
  3 35  1  0  0  0  0
  3 36  1  0  0  0  0
  4  5  1  0  0  0  0
  4 37  1  0  0  0  0
  4 38  1  0  0  0  0
  5 10  2  0  0  0  0
  5  6  1  0  0  0  0
  6  7  2  0  0  0  0
  6 39  1  0  0  0  0
  7  8  1  0  0  0  0
  7 40  1  0  0  0  0
  8  9  2  0  0  0  0
  8 12  1  0  0  0  0
  9 10  1  0  0  0  0
  9 41  1  0  0  0  0
 10 11  1  0  0  0  0
 12 13  1  0  0  0  0
 13 14  1  0  0  0  0
 13 42  1  0  0  0  0
 13 43  1  0  0  0  0
 14 15  1  0  0  0  0
 14 44  1  0  0  0  0
 14 45  1  0  0  0  0
 15 16  1  0  0  0  0
 15 46  1  0  0  0  0
 15 47  1  0  0  0  0
 16 17  1  0  0  0  0
 17 22  2  0  0  0  0
 17 18  1  0  0  0  0
 18 19  2  0  0  0  0
 18 48  1  0  0  0  0
 19 20  1  0  0  0  0
 19 49  1  0  0  0  0
 20 21  2  0  0  0  0
 20 24  1  0  0  0  0
 21 22  1  0  0  0  0
 21 50  1  0  0  0  0
 22 23  1  0  0  0  0
 24 25  1  0  0  0  0
 25 26  1  0  0  0  0
 25 27  1  0  0  0  0
 25 28  1  0  0  0  0
 29 30  2  0  0  0  0
 29 31  1  0  0  0  0
M  CHG  1  31  -1
M  END
$$$$
