CHEMBL484330
 OpenBabel05272217113D

 53 56  0  0  1  0  0  0  0  0999 V2000
   -0.0184    1.5028    0.0103 C   0  0  0  0  0  0  0  0  0  0  0  0
    0.0021   -0.0041    0.0020 C   0  0  0  0  0  0  0  0  0  0  0  0
   -1.0705   -0.8164    0.0025 C   0  0  0  0  0  0  0  0  0  0  0  0
   -0.6270   -2.0826   -0.0064 N   0  0  0  0  0  0  0  0  0  0  0  0
    0.6851   -2.0676   -0.0123 C   0  0  0  0  0  0  0  0  0  0  0  0
    1.0981   -0.7883   -0.0131 O   0  0  0  0  0  0  0  0  0  0  0  0
    1.5619   -3.2577   -0.0227 C   0  0  0  0  0  0  0  0  0  0  0  0
    1.0059   -4.5378   -0.0330 C   0  0  0  0  0  0  0  0  0  0  0  0
    1.8298   -5.6443   -0.0432 C   0  0  0  0  0  0  0  0  0  0  0  0
    3.2044   -5.4871   -0.0433 C   0  0  0  0  0  0  0  0  0  0  0  0
    3.7620   -4.2209   -0.0327 C   0  0  0  0  0  0  0  0  0  0  0  0
    2.9493   -3.1060   -0.0282 C   0  0  0  0  0  0  0  0  0  0  0  0
   -2.5133   -0.3814    0.0119 C   0  0  0  0  0  0  0  0  0  0  0  0
   -3.0085   -0.2260   -1.4274 C   0  0  0  0  0  0  0  0  0  0  0  0
   -4.3766    0.1865   -1.4185 O   0  0  0  0  0  0  0  0  0  0  0  0
   -4.9733    0.3716   -2.6260 C   0  0  0  0  0  0  0  0  0  0  0  0
   -4.2636    0.1567   -3.7964 C   0  0  0  0  0  0  0  0  0  0  0  0
   -4.8902    0.3510   -5.0196 C   0  0  0  0  0  0  0  0  0  0  0  0
   -6.1878    0.7485   -5.0994 C   0  0  0  0  0  0  0  0  0  0  0  0
   -6.9496    0.9799   -3.9282 C   0  0  0  0  0  0  0  0  0  0  0  0
   -6.2951    0.7705   -2.6966 C   0  0  0  0  0  0  0  0  0  0  0  0
   -7.5429    1.1421   -1.4916 S   0  0  0  0  0  0  0  0  0  0  0  0
   -8.8809    1.5505   -2.5965 C   0  0  0  0  0  0  0  0  0  0  0  0
   -8.3368    1.4055   -3.8137 C   0  0  0  0  0  0  0  0  0  0  0  0
   -6.8235    0.9459   -6.4514 C   0  0  0  0  0  0  0  0  0  0  0  0
   -6.7258    2.4196   -6.8507 C   0  0  1  0  0  0  0  0  0  0  0  0
   -5.6845    2.7390   -6.8093 H   0  0  0  0  0  0  0  0  0  0  0  0
   -7.2500    2.5961   -8.2526 C   0  0  0  0  0  0  0  0  0  0  0  0
   -8.2553    3.2573   -8.4487 O   0  0  0  0  0  0  0  0  0  0  0  0
   -6.6686    2.0776   -9.1905 O   0  5  0  0  0  0  0  0  0  0  0  0
   -7.5027    3.2100   -5.9487 O   0  0  0  0  0  0  0  0  0  0  0  0
   -7.0039    4.5358   -5.7600 C   0  0  0  0  0  0  0  0  0  0  0  0
    1.0042    1.8801    0.0026 H   0  0  0  0  0  0  0  0  0  0  0  0
   -0.5455    1.8639   -0.8728 H   0  0  0  0  0  0  0  0  0  0  0  0
   -0.5286    1.8543    0.9071 H   0  0  0  0  0  0  0  0  0  0  0  0
   -0.0670   -4.6619   -0.0326 H   0  0  0  0  0  0  0  0  0  0  0  0
    1.4008   -6.6354   -0.0508 H   0  0  0  0  0  0  0  0  0  0  0  0
    3.8450   -6.3565   -0.0513 H   0  0  0  0  0  0  0  0  0  0  0  0
    4.8357   -4.1050   -0.0321 H   0  0  0  0  0  0  0  0  0  0  0  0
    3.3858   -2.1181   -0.0249 H   0  0  0  0  0  0  0  0  0  0  0  0
   -3.1156   -1.1316    0.5243 H   0  0  0  0  0  0  0  0  0  0  0  0
   -2.6018    0.5726    0.5316 H   0  0  0  0  0  0  0  0  0  0  0  0
   -2.4061    0.5242   -1.9398 H   0  0  0  0  0  0  0  0  0  0  0  0
   -2.9200   -1.1800   -1.9471 H   0  0  0  0  0  0  0  0  0  0  0  0
   -3.2316   -0.1591   -3.7572 H   0  0  0  0  0  0  0  0  0  0  0  0
   -4.3335    0.1827   -5.9296 H   0  0  0  0  0  0  0  0  0  0  0  0
   -9.8868    1.8531   -2.3454 H   0  0  0  0  0  0  0  0  0  0  0  0
   -8.9263    1.5880   -4.7000 H   0  0  0  0  0  0  0  0  0  0  0  0
   -6.3048    0.3343   -7.1896 H   0  0  0  0  0  0  0  0  0  0  0  0
   -7.8717    0.6503   -6.4067 H   0  0  0  0  0  0  0  0  0  0  0  0
   -7.6484    5.0706   -5.0623 H   0  0  0  0  0  0  0  0  0  0  0  0
   -5.9920    4.4894   -5.3574 H   0  0  0  0  0  0  0  0  0  0  0  0
   -6.9908    5.0586   -6.7163 H   0  0  0  0  0  0  0  0  0  0  0  0
  1  2  1  0  0  0  0
  1 33  1  0  0  0  0
  1 34  1  0  0  0  0
  1 35  1  0  0  0  0
  2  6  1  0  0  0  0
  2  3  2  0  0  0  0
  3  4  1  0  0  0  0
  3 13  1  0  0  0  0
  4  5  2  0  0  0  0
  5  6  1  0  0  0  0
  5  7  1  0  0  0  0
  7 12  2  0  0  0  0
  7  8  1  0  0  0  0
  8  9  2  0  0  0  0
  8 36  1  0  0  0  0
  9 10  1  0  0  0  0
  9 37  1  0  0  0  0
 10 11  2  0  0  0  0
 10 38  1  0  0  0  0
 11 12  1  0  0  0  0
 11 39  1  0  0  0  0
 12 40  1  0  0  0  0
 13 14  1  0  0  0  0
 13 41  1  0  0  0  0
 13 42  1  0  0  0  0
 14 15  1  0  0  0  0
 14 43  1  0  0  0  0
 14 44  1  0  0  0  0
 15 16  1  0  0  0  0
 16 21  2  0  0  0  0
 16 17  1  0  0  0  0
 17 18  2  0  0  0  0
 17 45  1  0  0  0  0
 18 19  1  0  0  0  0
 18 46  1  0  0  0  0
 19 20  2  0  0  0  0
 19 25  1  0  0  0  0
 20 24  1  0  0  0  0
 20 21  1  0  0  0  0
 21 22  1  0  0  0  0
 22 23  1  0  0  0  0
 23 24  2  0  0  0  0
 23 47  1  0  0  0  0
 24 48  1  0  0  0  0
 25 26  1  0  0  0  0
 25 49  1  0  0  0  0
 25 50  1  0  0  0  0
 26 27  1  1  0  0  0
 26 28  1  0  0  0  0
 26 31  1  0  0  0  0
 28 29  2  0  0  0  0
 28 30  1  0  0  0  0
 31 32  1  0  0  0  0
 32 51  1  0  0  0  0
 32 52  1  0  0  0  0
 32 53  1  0  0  0  0
M  CHG  1  30  -1
M  END
$$$$
