CHEMBL1075683
 OpenBabel05272217113D

 69 73  0  0  0  0  0  0  0  0999 V2000
   -0.2618    1.5541   -0.0816 C   0  0  0  0  0  0  0  0  0  0  0  0
   -0.3320    0.0490   -0.1070 C   0  0  0  0  0  0  0  0  0  0  0  0
   -0.1260   -0.6323   -1.2911 C   0  0  0  0  0  0  0  0  0  0  0  0
   -0.1902   -2.0174   -1.3143 C   0  0  0  0  0  0  0  0  0  0  0  0
   -0.4611   -2.7188   -0.1486 C   0  0  0  0  0  0  0  0  0  0  0  0
   -0.6670   -2.0378    1.0351 C   0  0  0  0  0  0  0  0  0  0  0  0
   -0.5977   -0.6525    1.0594 C   0  0  0  0  0  0  0  0  0  0  0  0
   -0.7948    0.0178    2.2260 O   0  0  0  0  0  0  0  0  0  0  0  0
   -1.0640   -0.7684    3.3885 C   0  0  0  0  0  0  0  0  0  0  0  0
   -1.2534    0.1395    4.5762 C   0  0  0  0  0  0  0  0  0  0  0  0
   -1.1661    1.3480    4.4399 O   0  0  0  0  0  0  0  0  0  0  0  0
   -1.4941   -0.3343    5.6736 O   0  5  0  0  0  0  0  0  0  0  0  0
    0.0121   -2.6880   -2.4798 O   0  0  0  0  0  0  0  0  0  0  0  0
   -0.0687   -4.1138   -2.4304 C   0  0  0  0  0  0  0  0  0  0  0  0
    0.1810   -4.6790   -3.8049 C   0  0  0  0  0  0  0  0  0  0  0  0
    1.3457   -5.0169   -4.2768 N   0  0  0  0  0  0  0  0  0  0  0  0
    1.1901   -5.4828   -5.5342 C   0  0  0  0  0  0  0  0  0  0  0  0
   -0.1571   -5.4159   -5.8255 C   0  0  0  0  0  0  0  0  0  0  0  0
   -0.7630   -4.9159   -4.7260 O   0  0  0  0  0  0  0  0  0  0  0  0
   -0.8086   -5.8173   -7.0871 C   0  0  0  0  0  0  0  0  0  0  0  0
   -0.4962   -7.0445   -7.6775 C   0  0  0  0  0  0  0  0  0  0  0  0
   -1.1073   -7.4153   -8.8560 C   0  0  0  0  0  0  0  0  0  0  0  0
   -2.0321   -6.5712   -9.4566 C   0  0  0  0  0  0  0  0  0  0  0  0
   -2.3454   -5.3503   -8.8736 C   0  0  0  0  0  0  0  0  0  0  0  0
   -1.7440   -4.9739   -7.6919 C   0  0  0  0  0  0  0  0  0  0  0  0
   -2.6321   -6.9408  -10.6184 O   0  0  0  0  0  0  0  0  0  0  0  0
   -3.5734   -6.0255  -11.1823 C   0  0  0  0  0  0  0  0  0  0  0  0
   -2.9354   -4.8114  -11.4584 F   0  0  0  0  0  0  0  0  0  0  0  0
   -4.0915   -6.5599  -12.3669 F   0  0  0  0  0  0  0  0  0  0  0  0
   -4.6150   -5.8089  -10.2738 F   0  0  0  0  0  0  0  0  0  0  0  0
    2.2623   -5.9725   -6.4314 C   0  0  0  0  0  0  0  0  0  0  0  0
    2.2722   -5.6017   -7.7761 C   0  0  0  0  0  0  0  0  0  0  0  0
    3.2718   -6.0595   -8.6084 C   0  0  0  0  0  0  0  0  0  0  0  0
    4.2676   -6.8884   -8.1095 C   0  0  0  0  0  0  0  0  0  0  0  0
    4.2606   -7.2598   -6.7718 C   0  0  0  0  0  0  0  0  0  0  0  0
    3.2675   -6.8008   -5.9323 C   0  0  0  0  0  0  0  0  0  0  0  0
    5.2512   -7.3376   -8.9326 O   0  0  0  0  0  0  0  0  0  0  0  0
    5.1312   -7.0196  -10.3206 C   0  0  0  0  0  0  0  0  0  0  0  0
    5.7922   -5.6517  -10.6224 C   0  0  0  0  0  0  0  0  0  0  0  0
    6.1139   -5.7536  -12.1340 C   0  0  0  0  0  0  0  0  0  0  0  0
    6.5567   -7.2185  -12.3287 C   0  0  0  0  0  0  0  0  0  0  0  0
    5.9319   -8.0234  -11.1757 C   0  0  0  0  0  0  0  0  0  0  0  0
    0.7621    1.8667    0.1236 H   0  0  0  0  0  0  0  0  0  0  0  0
   -0.5754    1.9488   -1.0481 H   0  0  0  0  0  0  0  0  0  0  0  0
   -0.9213    1.9355    0.6979 H   0  0  0  0  0  0  0  0  0  0  0  0
    0.0846   -0.0862   -2.1987 H   0  0  0  0  0  0  0  0  0  0  0  0
   -0.5114   -3.7975   -0.1667 H   0  0  0  0  0  0  0  0  0  0  0  0
   -0.8787   -2.5838    1.9426 H   0  0  0  0  0  0  0  0  0  0  0  0
   -1.9701   -1.3531    3.2299 H   0  0  0  0  0  0  0  0  0  0  0  0
   -0.2261   -1.4403    3.5747 H   0  0  0  0  0  0  0  0  0  0  0  0
    0.6814   -4.4965   -1.7384 H   0  0  0  0  0  0  0  0  0  0  0  0
   -1.0612   -4.4099   -2.0906 H   0  0  0  0  0  0  0  0  0  0  0  0
    0.2232   -7.7014   -7.2113 H   0  0  0  0  0  0  0  0  0  0  0  0
   -0.8661   -8.3635   -9.3133 H   0  0  0  0  0  0  0  0  0  0  0  0
   -3.0648   -4.6967   -9.3446 H   0  0  0  0  0  0  0  0  0  0  0  0
   -1.9918   -4.0264   -7.2368 H   0  0  0  0  0  0  0  0  0  0  0  0
    1.4978   -4.9572   -8.1650 H   0  0  0  0  0  0  0  0  0  0  0  0
    3.2800   -5.7731   -9.6497 H   0  0  0  0  0  0  0  0  0  0  0  0
    5.0365   -7.9050   -6.3871 H   0  0  0  0  0  0  0  0  0  0  0  0
    3.2656   -7.0859   -4.8906 H   0  0  0  0  0  0  0  0  0  0  0  0
    4.0833   -7.0137  -10.6205 H   0  0  0  0  0  0  0  0  0  0  0  0
    5.0959   -4.8354  -10.4298 H   0  0  0  0  0  0  0  0  0  0  0  0
    6.7055   -5.5272  -10.0406 H   0  0  0  0  0  0  0  0  0  0  0  0
    5.2252   -5.5415  -12.7284 H   0  0  0  0  0  0  0  0  0  0  0  0
    6.9225   -5.0723  -12.3987 H   0  0  0  0  0  0  0  0  0  0  0  0
    6.1943   -7.5941  -13.2856 H   0  0  0  0  0  0  0  0  0  0  0  0
    7.6436   -7.2887  -12.2870 H   0  0  0  0  0  0  0  0  0  0  0  0
    6.7156   -8.4843  -10.5744 H   0  0  0  0  0  0  0  0  0  0  0  0
    5.2663   -8.7897  -11.5730 H   0  0  0  0  0  0  0  0  0  0  0  0
  1  2  1  0  0  0  0
  1 43  1  0  0  0  0
  1 44  1  0  0  0  0
  1 45  1  0  0  0  0
  2  7  2  0  0  0  0
  2  3  1  0  0  0  0
  3  4  2  0  0  0  0
  3 46  1  0  0  0  0
  4  5  1  0  0  0  0
  4 13  1  0  0  0  0
  5  6  2  0  0  0  0
  5 47  1  0  0  0  0
  6  7  1  0  0  0  0
  6 48  1  0  0  0  0
  7  8  1  0  0  0  0
  8  9  1  0  0  0  0
  9 10  1  0  0  0  0
  9 49  1  0  0  0  0
  9 50  1  0  0  0  0
 10 11  2  0  0  0  0
 10 12  1  0  0  0  0
 13 14  1  0  0  0  0
 14 15  1  0  0  0  0
 14 51  1  0  0  0  0
 14 52  1  0  0  0  0
 15 19  1  0  0  0  0
 15 16  2  0  0  0  0
 16 17  1  0  0  0  0
 17 18  2  0  0  0  0
 17 31  1  0  0  0  0
 18 19  1  0  0  0  0
 18 20  1  0  0  0  0
 20 25  2  0  0  0  0
 20 21  1  0  0  0  0
 21 22  2  0  0  0  0
 21 53  1  0  0  0  0
 22 23  1  0  0  0  0
 22 54  1  0  0  0  0
 23 24  2  0  0  0  0
 23 26  1  0  0  0  0
 24 25  1  0  0  0  0
 24 55  1  0  0  0  0
 25 56  1  0  0  0  0
 26 27  1  0  0  0  0
 27 28  1  0  0  0  0
 27 29  1  0  0  0  0
 27 30  1  0  0  0  0
 31 36  2  0  0  0  0
 31 32  1  0  0  0  0
 32 33  2  0  0  0  0
 32 57  1  0  0  0  0
 33 34  1  0  0  0  0
 33 58  1  0  0  0  0
 34 35  2  0  0  0  0
 34 37  1  0  0  0  0
 35 36  1  0  0  0  0
 35 59  1  0  0  0  0
 36 60  1  0  0  0  0
 37 38  1  0  0  0  0
 38 42  1  0  0  0  0
 38 39  1  0  0  0  0
 38 61  1  0  0  0  0
 39 40  1  0  0  0  0
 39 62  1  0  0  0  0
 39 63  1  0  0  0  0
 40 41  1  0  0  0  0
 40 64  1  0  0  0  0
 40 65  1  0  0  0  0
 41 42  1  0  0  0  0
 41 66  1  0  0  0  0
 41 67  1  0  0  0  0
 42 68  1  0  0  0  0
 42 69  1  0  0  0  0
M  CHG  1  12  -1
M  END
$$$$
