CHEMBL220836
 OpenBabel05272217113D

 65 68  0  0  1  0  0  0  0  0999 V2000
    0.2389    1.6717    0.1938 C   0  0  0  0  0  0  0  0  0  0  0  0
    0.5520    0.1799    0.0618 C   0  0  0  0  0  0  0  0  0  0  0  0
   -0.7226   -0.6319    0.3011 C   0  0  0  0  0  0  0  0  0  0  0  0
   -0.4142   -2.1013    0.1710 C   0  0  0  0  0  0  0  0  0  0  0  0
   -0.6179   -2.7457   -1.0338 C   0  0  0  0  0  0  0  0  0  0  0  0
   -0.3340   -4.0981   -1.1535 C   0  0  0  0  0  0  0  0  0  0  0  0
    0.1544   -4.8035   -0.0631 C   0  0  0  0  0  0  0  0  0  0  0  0
    0.3580   -4.1591    1.1412 C   0  0  0  0  0  0  0  0  0  0  0  0
    0.0794   -2.8052    1.2592 C   0  0  0  0  0  0  0  0  0  0  0  0
    0.2855   -2.1693    2.4434 O   0  0  0  0  0  0  0  0  0  0  0  0
    0.7957   -2.9559    3.5219 C   0  0  0  0  0  0  0  0  0  0  0  0
    0.9608   -2.0750    4.7619 C   0  0  0  0  0  0  0  0  0  0  0  0
    1.5070   -2.9172    5.9166 C   0  0  0  0  0  0  0  0  0  0  0  0
    1.6612   -2.0945    7.0748 O   0  0  0  0  0  0  0  0  0  0  0  0
    2.1401   -2.6926    8.1972 C   0  0  0  0  0  0  0  0  0  0  0  0
    2.4608   -4.0425    8.1833 C   0  0  0  0  0  0  0  0  0  0  0  0
    2.9468   -4.6454    9.3255 C   0  0  0  0  0  0  0  0  0  0  0  0
    3.1156   -3.9088   10.4868 C   0  0  0  0  0  0  0  0  0  0  0  0
    2.7966   -2.5637   10.5032 C   0  0  0  0  0  0  0  0  0  0  0  0
    2.3149   -1.9547    9.3573 C   0  0  0  0  0  0  0  0  0  0  0  0
    3.0680   -1.9902   11.8776 C   0  0  0  0  0  0  0  0  0  0  0  0
    3.1696   -3.2137   12.8130 C   0  0  0  0  0  0  0  0  0  0  0  0
    3.6232   -4.3306   11.8493 C   0  0  1  0  0  0  0  0  0  0  0  0
    4.7107   -4.4048   11.8414 H   0  0  0  0  0  0  0  0  0  0  0  0
    3.0018   -5.6681   12.2566 C   0  0  0  0  0  0  0  0  0  0  0  0
    3.6014   -6.1238   13.5620 C   0  0  0  0  0  0  0  0  0  0  0  0
    4.4418   -5.4383   14.1190 O   0  0  0  0  0  0  0  0  0  0  0  0
    3.2461   -7.1779   14.0610 O   0  5  0  0  0  0  0  0  0  0  0  0
   -0.5349   -4.7327   -2.3391 O   0  0  0  0  0  0  0  0  0  0  0  0
   -0.3504   -6.0782   -2.3818 C   0  0  0  0  0  0  0  0  0  0  0  0
   -1.3126   -6.9287   -1.8560 C   0  0  0  0  0  0  0  0  0  0  0  0
   -1.1225   -8.2961   -1.9006 C   0  0  0  0  0  0  0  0  0  0  0  0
    0.0254   -8.8177   -2.4682 C   0  0  0  0  0  0  0  0  0  0  0  0
    0.9858   -7.9725   -2.9928 C   0  0  0  0  0  0  0  0  0  0  0  0
    0.7979   -6.6044   -2.9563 C   0  0  0  0  0  0  0  0  0  0  0  0
    1.1470    2.2500    0.0233 H   0  0  0  0  0  0  0  0  0  0  0  0
   -0.5138    1.9515   -0.5432 H   0  0  0  0  0  0  0  0  0  0  0  0
   -0.1395    1.8762    1.1954 H   0  0  0  0  0  0  0  0  0  0  0  0
    0.9304   -0.0247   -0.9398 H   0  0  0  0  0  0  0  0  0  0  0  0
    1.3048   -0.1000    0.7988 H   0  0  0  0  0  0  0  0  0  0  0  0
   -1.1010   -0.4273    1.3026 H   0  0  0  0  0  0  0  0  0  0  0  0
   -1.4754   -0.3520   -0.4359 H   0  0  0  0  0  0  0  0  0  0  0  0
   -0.9984   -2.1967   -1.8824 H   0  0  0  0  0  0  0  0  0  0  0  0
    0.3752   -5.8566   -0.1561 H   0  0  0  0  0  0  0  0  0  0  0  0
    0.7382   -4.7081    1.9900 H   0  0  0  0  0  0  0  0  0  0  0  0
    0.1002   -3.7659    3.7415 H   0  0  0  0  0  0  0  0  0  0  0  0
    1.7627   -3.3733    3.2414 H   0  0  0  0  0  0  0  0  0  0  0  0
    1.6562   -1.2650    4.5423 H   0  0  0  0  0  0  0  0  0  0  0  0
   -0.0063   -1.6576    5.0424 H   0  0  0  0  0  0  0  0  0  0  0  0
    0.8115   -3.7272    6.1363 H   0  0  0  0  0  0  0  0  0  0  0  0
    2.4741   -3.3346    5.6361 H   0  0  0  0  0  0  0  0  0  0  0  0
    2.3300   -4.6203    7.2803 H   0  0  0  0  0  0  0  0  0  0  0  0
    3.1964   -5.6961    9.3143 H   0  0  0  0  0  0  0  0  0  0  0  0
    2.0703   -0.9028    9.3686 H   0  0  0  0  0  0  0  0  0  0  0  0
    4.0061   -1.4353   11.8774 H   0  0  0  0  0  0  0  0  0  0  0  0
    2.2460   -1.3448   12.1872 H   0  0  0  0  0  0  0  0  0  0  0  0
    3.9151   -3.0462   13.5903 H   0  0  0  0  0  0  0  0  0  0  0  0
    2.1991   -3.4492   13.2496 H   0  0  0  0  0  0  0  0  0  0  0  0
    1.9248   -5.5476   12.3739 H   0  0  0  0  0  0  0  0  0  0  0  0
    3.2023   -6.4118   11.4854 H   0  0  0  0  0  0  0  0  0  0  0  0
   -2.2090   -6.5218   -1.4120 H   0  0  0  0  0  0  0  0  0  0  0  0
   -1.8711   -8.9585   -1.4916 H   0  0  0  0  0  0  0  0  0  0  0  0
    0.1724   -9.8871   -2.5014 H   0  0  0  0  0  0  0  0  0  0  0  0
    1.8817   -8.3824   -3.4352 H   0  0  0  0  0  0  0  0  0  0  0  0
    1.5460   -5.9448   -3.3705 H   0  0  0  0  0  0  0  0  0  0  0  0
  1  2  1  0  0  0  0
  1 36  1  0  0  0  0
  1 37  1  0  0  0  0
  1 38  1  0  0  0  0
  2  3  1  0  0  0  0
  2 39  1  0  0  0  0
  2 40  1  0  0  0  0
  3  4  1  0  0  0  0
  3 41  1  0  0  0  0
  3 42  1  0  0  0  0
  4  9  2  0  0  0  0
  4  5  1  0  0  0  0
  5  6  2  0  0  0  0
  5 43  1  0  0  0  0
  6  7  1  0  0  0  0
  6 29  1  0  0  0  0
  7  8  2  0  0  0  0
  7 44  1  0  0  0  0
  8  9  1  0  0  0  0
  8 45  1  0  0  0  0
  9 10  1  0  0  0  0
 10 11  1  0  0  0  0
 11 12  1  0  0  0  0
 11 46  1  0  0  0  0
 11 47  1  0  0  0  0
 12 13  1  0  0  0  0
 12 48  1  0  0  0  0
 12 49  1  0  0  0  0
 13 14  1  0  0  0  0
 13 50  1  0  0  0  0
 13 51  1  0  0  0  0
 14 15  1  0  0  0  0
 15 20  2  0  0  0  0
 15 16  1  0  0  0  0
 16 17  2  0  0  0  0
 16 52  1  0  0  0  0
 17 18  1  0  0  0  0
 17 53  1  0  0  0  0
 18 23  1  0  0  0  0
 18 19  2  0  0  0  0
 19 20  1  0  0  0  0
 19 21  1  0  0  0  0
 20 54  1  0  0  0  0
 21 22  1  0  0  0  0
 21 55  1  0  0  0  0
 21 56  1  0  0  0  0
 22 23  1  0  0  0  0
 22 57  1  0  0  0  0
 22 58  1  0  0  0  0
 23 24  1  6  0  0  0
 23 25  1  0  0  0  0
 25 26  1  0  0  0  0
 25 59  1  0  0  0  0
 25 60  1  0  0  0  0
 26 27  2  0  0  0  0
 26 28  1  0  0  0  0
 29 30  1  0  0  0  0
 30 35  2  0  0  0  0
 30 31  1  0  0  0  0
 31 32  2  0  0  0  0
 31 61  1  0  0  0  0
 32 33  1  0  0  0  0
 32 62  1  0  0  0  0
 33 34  2  0  0  0  0
 33 63  1  0  0  0  0
 34 35  1  0  0  0  0
 34 64  1  0  0  0  0
 35 65  1  0  0  0  0
M  CHG  1  28  -1
M  END
$$$$
