CHEMBL234800
 OpenBabel05272217113D

 51 54  0  0  0  0  0  0  0  0999 V2000
   -0.0167    1.3781    0.0096 C   0  0  0  0  0  0  0  0  0  0  0  0
    1.1709    2.0855    0.0021 C   0  0  0  0  0  0  0  0  0  0  0  0
    2.3773    1.4107   -0.0130 C   0  0  0  0  0  0  0  0  0  0  0  0
    2.3960    0.0285   -0.0201 C   0  0  0  0  0  0  0  0  0  0  0  0
    1.2085   -0.6789   -0.0117 C   0  0  0  0  0  0  0  0  0  0  0  0
    0.0021   -0.0041    0.0020 C   0  0  0  0  0  0  0  0  0  0  0  0
   -1.2926   -0.7753    0.0107 C   0  0  0  0  0  0  0  0  0  0  0  0
   -1.7152   -1.0118   -1.3338 O   0  0  0  0  0  0  0  0  0  0  0  0
   -2.8744   -1.7003   -1.5041 C   0  0  0  0  0  0  0  0  0  0  0  0
   -3.5935   -2.1342   -0.3998 C   0  0  0  0  0  0  0  0  0  0  0  0
   -4.7718   -2.8335   -0.5756 C   0  0  0  0  0  0  0  0  0  0  0  0
   -5.2345   -3.1014   -1.8507 C   0  0  0  0  0  0  0  0  0  0  0  0
   -4.5195   -2.6704   -2.9529 C   0  0  0  0  0  0  0  0  0  0  0  0
   -3.3437   -1.9654   -2.7824 C   0  0  0  0  0  0  0  0  0  0  0  0
   -6.5200   -3.8648   -2.0396 C   0  0  0  0  0  0  0  0  0  0  0  0
   -7.5920   -2.9675   -2.0915 F   0  0  0  0  0  0  0  0  0  0  0  0
   -6.4605   -4.5900   -3.2345 F   0  0  0  0  0  0  0  0  0  0  0  0
   -6.7009   -4.7458   -0.9679 F   0  0  0  0  0  0  0  0  0  0  0  0
    3.6720    2.1819   -0.0222 C   0  0  0  0  0  0  0  0  0  0  0  0
    4.0946    2.4194    1.3220 O   0  0  0  0  0  0  0  0  0  0  0  0
    5.2540    3.1081    1.4919 C   0  0  0  0  0  0  0  0  0  0  0  0
    5.9640    3.5494    0.3787 C   0  0  0  0  0  0  0  0  0  0  0  0
    7.1312    4.2430    0.5342 C   0  0  0  0  0  0  0  0  0  0  0  0
    7.6130    4.5098    1.8151 C   0  0  0  0  0  0  0  0  0  0  0  0
    6.9030    4.0683    2.9442 C   0  0  0  0  0  0  0  0  0  0  0  0
    5.7155    3.3695    2.7693 C   0  0  0  0  0  0  0  0  0  0  0  0
    7.5947    4.4633    4.0320 O   0  0  0  0  0  0  0  0  0  0  0  0
    8.7063    5.1320    3.6767 C   0  0  0  0  0  0  0  0  0  0  0  0
    8.7939    5.2056    2.3420 C   0  0  0  0  0  0  0  0  0  0  0  0
    9.8854    5.8689    1.5420 C   0  0  0  0  0  0  0  0  0  0  0  0
    9.4672    7.2731    1.1895 C   0  0  0  0  0  0  0  0  0  0  0  0
    8.3834    7.6961    1.5540 O   0  0  0  0  0  0  0  0  0  0  0  0
   10.2127    7.9862    0.5397 O   0  5  0  0  0  0  0  0  0  0  0  0
   -0.9591    1.9053    0.0259 H   0  0  0  0  0  0  0  0  0  0  0  0
    1.1563    3.1654    0.0076 H   0  0  0  0  0  0  0  0  0  0  0  0
    3.3385   -0.4987   -0.0326 H   0  0  0  0  0  0  0  0  0  0  0  0
    1.2231   -1.7588   -0.0179 H   0  0  0  0  0  0  0  0  0  0  0  0
   -1.1443   -1.7285    0.5180 H   0  0  0  0  0  0  0  0  0  0  0  0
   -2.0551   -0.1993    0.5352 H   0  0  0  0  0  0  0  0  0  0  0  0
   -3.2321   -1.9258    0.5964 H   0  0  0  0  0  0  0  0  0  0  0  0
   -5.3320   -3.1715    0.2837 H   0  0  0  0  0  0  0  0  0  0  0  0
   -4.8827   -2.8812   -3.9478 H   0  0  0  0  0  0  0  0  0  0  0  0
   -2.7879   -1.6251   -3.6436 H   0  0  0  0  0  0  0  0  0  0  0  0
    4.4344    1.6056   -0.5463 H   0  0  0  0  0  0  0  0  0  0  0  0
    3.5237    3.1349   -0.5302 H   0  0  0  0  0  0  0  0  0  0  0  0
    5.5905    3.3422   -0.6132 H   0  0  0  0  0  0  0  0  0  0  0  0
    7.6788    4.5831   -0.3323 H   0  0  0  0  0  0  0  0  0  0  0  0
    5.1563    3.0279    3.6278 H   0  0  0  0  0  0  0  0  0  0  0  0
    9.4241    5.5493    4.3673 H   0  0  0  0  0  0  0  0  0  0  0  0
   10.8010    5.8999    2.1325 H   0  0  0  0  0  0  0  0  0  0  0  0
   10.0615    5.3019    0.6279 H   0  0  0  0  0  0  0  0  0  0  0  0
  1  6  2  0  0  0  0
  1  2  1  0  0  0  0
  1 34  1  0  0  0  0
  2  3  2  0  0  0  0
  2 35  1  0  0  0  0
  3  4  1  0  0  0  0
  3 19  1  0  0  0  0
  4  5  2  0  0  0  0
  4 36  1  0  0  0  0
  5  6  1  0  0  0  0
  5 37  1  0  0  0  0
  6  7  1  0  0  0  0
  7  8  1  0  0  0  0
  7 38  1  0  0  0  0
  7 39  1  0  0  0  0
  8  9  1  0  0  0  0
  9 14  2  0  0  0  0
  9 10  1  0  0  0  0
 10 11  2  0  0  0  0
 10 40  1  0  0  0  0
 11 12  1  0  0  0  0
 11 41  1  0  0  0  0
 12 13  2  0  0  0  0
 12 15  1  0  0  0  0
 13 14  1  0  0  0  0
 13 42  1  0  0  0  0
 14 43  1  0  0  0  0
 15 16  1  0  0  0  0
 15 17  1  0  0  0  0
 15 18  1  0  0  0  0
 19 20  1  0  0  0  0
 19 44  1  0  0  0  0
 19 45  1  0  0  0  0
 20 21  1  0  0  0  0
 21 26  2  0  0  0  0
 21 22  1  0  0  0  0
 22 23  2  0  0  0  0
 22 46  1  0  0  0  0
 23 24  1  0  0  0  0
 23 47  1  0  0  0  0
 24 29  1  0  0  0  0
 24 25  2  0  0  0  0
 25 26  1  0  0  0  0
 25 27  1  0  0  0  0
 26 48  1  0  0  0  0
 27 28  1  0  0  0  0
 28 29  2  0  0  0  0
 28 49  1  0  0  0  0
 29 30  1  0  0  0  0
 30 31  1  0  0  0  0
 30 50  1  0  0  0  0
 30 51  1  0  0  0  0
 31 32  2  0  0  0  0
 31 33  1  0  0  0  0
M  CHG  1  33  -1
M  END
$$$$
