CHEMBL328455
 OpenBabel05272217113D

 75 79  0  0  1  0  0  0  0  0999 V2000
   -0.0187    1.5258    0.0104 C   0  0  0  0  0  0  0  0  0  0  0  0
    0.0021   -0.0041    0.0020 C   0  0  0  0  0  0  0  0  0  0  0  0
    0.6932   -0.4774    1.1597 O   0  0  0  0  0  0  0  0  0  0  0  0
    0.7699   -1.9016    1.2491 C   0  0  1  0  0  0  0  0  0  0  0  0
    0.7819   -2.3284    0.2462 H   0  0  0  0  0  0  0  0  0  0  0  0
    2.0499   -2.2981    1.9875 C   0  0  0  0  0  0  0  0  0  0  0  0
    3.2484   -1.8847    1.1728 C   0  0  0  0  0  0  0  0  0  0  0  0
    3.7840   -2.7557    0.2422 C   0  0  0  0  0  0  0  0  0  0  0  0
    4.8829   -2.3792   -0.5056 C   0  0  0  0  0  0  0  0  0  0  0  0
    5.4488   -1.1259   -0.3223 C   0  0  0  0  0  0  0  0  0  0  0  0
    4.9092   -0.2536    0.6118 C   0  0  0  0  0  0  0  0  0  0  0  0
    3.8070   -0.6328    1.3533 C   0  0  0  0  0  0  0  0  0  0  0  0
    6.5301   -0.7534   -1.0564 O   0  0  0  0  0  0  0  0  0  0  0  0
    7.0601    0.5515   -0.8146 C   0  0  0  0  0  0  0  0  0  0  0  0
    8.2468    0.7862   -1.7134 C   0  0  0  0  0  0  0  0  0  0  0  0
    8.3717    1.9482   -2.3679 C   0  0  0  0  0  0  0  0  0  0  0  0
    7.3428    3.0031   -2.2083 C   0  0  0  0  0  0  0  0  0  0  0  0
    6.5564    3.3810   -3.2967 C   0  0  0  0  0  0  0  0  0  0  0  0
    5.6001    4.3609   -3.1480 C   0  0  0  0  0  0  0  0  0  0  0  0
    5.4179    4.9754   -1.9094 C   0  0  0  0  0  0  0  0  0  0  0  0
    6.2040    4.5977   -0.8211 C   0  0  0  0  0  0  0  0  0  0  0  0
    7.1569    3.6141   -0.9680 C   0  0  0  0  0  0  0  0  0  0  0  0
    4.3884    6.0309   -1.7496 C   0  0  0  0  0  0  0  0  0  0  0  0
    3.5977    6.4067   -2.8341 C   0  0  0  0  0  0  0  0  0  0  0  0
    2.6413    7.3895   -2.6796 C   0  0  0  0  0  0  0  0  0  0  0  0
    2.4669    8.0017   -1.4514 C   0  0  0  0  0  0  0  0  0  0  0  0
    3.2488    7.6327   -0.3716 C   0  0  0  0  0  0  0  0  0  0  0  0
    4.2041    6.6468   -0.5128 C   0  0  0  0  0  0  0  0  0  0  0  0
    9.5388    2.1791   -3.2519 C   0  0  0  0  0  0  0  0  0  0  0  0
   10.4719    3.1655   -2.9320 C   0  0  0  0  0  0  0  0  0  0  0  0
   11.5566    3.3795   -3.7533 C   0  0  0  0  0  0  0  0  0  0  0  0
   11.7221    2.6102   -4.9048 C   0  0  0  0  0  0  0  0  0  0  0  0
   10.7894    1.6240   -5.2248 C   0  0  0  0  0  0  0  0  0  0  0  0
    9.7074    1.4061   -4.4009 C   0  0  0  0  0  0  0  0  0  0  0  0
   12.8899    2.8412   -5.7892 C   0  0  0  0  0  0  0  0  0  0  0  0
   13.8266    3.8225   -5.4692 C   0  0  0  0  0  0  0  0  0  0  0  0
   14.9113    4.0331   -6.2960 C   0  0  0  0  0  0  0  0  0  0  0  0
   15.0697    3.2727   -7.4407 C   0  0  0  0  0  0  0  0  0  0  0  0
   14.1433    2.2974   -7.7633 C   0  0  0  0  0  0  0  0  0  0  0  0
   13.0580    2.0738   -6.9407 C   0  0  0  0  0  0  0  0  0  0  0  0
   -0.4267   -2.4228    2.0025 C   0  0  0  0  0  0  0  0  0  0  0  0
   -0.6021   -3.6243    2.1120 O   0  0  0  0  0  0  0  0  0  0  0  0
   -1.2193   -1.6429    2.5025 O   0  5  0  0  0  0  0  0  0  0  0  0
    1.0039    1.9031    0.0027 H   0  0  0  0  0  0  0  0  0  0  0  0
   -0.5459    1.8868   -0.8726 H   0  0  0  0  0  0  0  0  0  0  0  0
   -0.5289    1.8773    0.9072 H   0  0  0  0  0  0  0  0  0  0  0  0
   -1.0205   -0.3814    0.0098 H   0  0  0  0  0  0  0  0  0  0  0  0
    0.5123   -0.3556   -0.8948 H   0  0  0  0  0  0  0  0  0  0  0  0
    2.0796   -1.7996    2.9564 H   0  0  0  0  0  0  0  0  0  0  0  0
    2.0651   -3.3781    2.1339 H   0  0  0  0  0  0  0  0  0  0  0  0
    3.3432   -3.7313    0.0999 H   0  0  0  0  0  0  0  0  0  0  0  0
    5.3014   -3.0602   -1.2319 H   0  0  0  0  0  0  0  0  0  0  0  0
    5.3479    0.7226    0.7563 H   0  0  0  0  0  0  0  0  0  0  0  0
    3.3839    0.0475    2.0775 H   0  0  0  0  0  0  0  0  0  0  0  0
    6.2941    1.2988   -1.0215 H   0  0  0  0  0  0  0  0  0  0  0  0
    7.3721    0.6297    0.2269 H   0  0  0  0  0  0  0  0  0  0  0  0
    8.9965    0.0176   -1.8297 H   0  0  0  0  0  0  0  0  0  0  0  0
    6.6977    2.9054   -4.2560 H   0  0  0  0  0  0  0  0  0  0  0  0
    4.9914    4.6538   -3.9907 H   0  0  0  0  0  0  0  0  0  0  0  0
    6.0628    5.0737    0.1381 H   0  0  0  0  0  0  0  0  0  0  0  0
    7.7628    3.3188   -0.1242 H   0  0  0  0  0  0  0  0  0  0  0  0
    3.7334    5.9300   -3.7937 H   0  0  0  0  0  0  0  0  0  0  0  0
    2.0280    7.6816   -3.5193 H   0  0  0  0  0  0  0  0  0  0  0  0
    1.7177    8.7708   -1.3353 H   0  0  0  0  0  0  0  0  0  0  0  0
    3.1086    8.1143    0.5849 H   0  0  0  0  0  0  0  0  0  0  0  0
    4.8106    6.3561    0.3321 H   0  0  0  0  0  0  0  0  0  0  0  0
   10.3436    3.7615   -2.0406 H   0  0  0  0  0  0  0  0  0  0  0  0
   12.2789    4.1434   -3.5059 H   0  0  0  0  0  0  0  0  0  0  0  0
   10.9178    1.0284   -6.1165 H   0  0  0  0  0  0  0  0  0  0  0  0
    8.9873    0.6396   -4.6466 H   0  0  0  0  0  0  0  0  0  0  0  0
   13.7035    4.4172   -4.5761 H   0  0  0  0  0  0  0  0  0  0  0  0
   15.6377    4.7932   -6.0491 H   0  0  0  0  0  0  0  0  0  0  0  0
   15.9198    3.4415   -8.0852 H   0  0  0  0  0  0  0  0  0  0  0  0
   14.2718    1.7070   -8.6584 H   0  0  0  0  0  0  0  0  0  0  0  0
   12.3379    1.3088   -7.1909 H   0  0  0  0  0  0  0  0  0  0  0  0
  1  2  1  0  0  0  0
  1 44  1  0  0  0  0
  1 45  1  0  0  0  0
  1 46  1  0  0  0  0
  2  3  1  0  0  0  0
  2 47  1  0  0  0  0
  2 48  1  0  0  0  0
  3  4  1  0  0  0  0
  4  5  1  6  0  0  0
  4  6  1  0  0  0  0
  4 41  1  0  0  0  0
  6  7  1  0  0  0  0
  6 49  1  0  0  0  0
  6 50  1  0  0  0  0
  7 12  2  0  0  0  0
  7  8  1  0  0  0  0
  8  9  2  0  0  0  0
  8 51  1  0  0  0  0
  9 10  1  0  0  0  0
  9 52  1  0  0  0  0
 10 11  2  0  0  0  0
 10 13  1  0  0  0  0
 11 12  1  0  0  0  0
 11 53  1  0  0  0  0
 12 54  1  0  0  0  0
 13 14  1  0  0  0  0
 14 15  1  0  0  0  0
 14 55  1  0  0  0  0
 14 56  1  0  0  0  0
 15 16  2  0  0  0  0
 15 57  1  0  0  0  0
 16 17  1  0  0  0  0
 16 29  1  0  0  0  0
 17 22  2  0  0  0  0
 17 18  1  0  0  0  0
 18 19  2  0  0  0  0
 18 58  1  0  0  0  0
 19 20  1  0  0  0  0
 19 59  1  0  0  0  0
 20 21  2  0  0  0  0
 20 23  1  0  0  0  0
 21 22  1  0  0  0  0
 21 60  1  0  0  0  0
 22 61  1  0  0  0  0
 23 28  2  0  0  0  0
 23 24  1  0  0  0  0
 24 25  2  0  0  0  0
 24 62  1  0  0  0  0
 25 26  1  0  0  0  0
 25 63  1  0  0  0  0
 26 27  2  0  0  0  0
 26 64  1  0  0  0  0
 27 28  1  0  0  0  0
 27 65  1  0  0  0  0
 28 66  1  0  0  0  0
 29 34  2  0  0  0  0
 29 30  1  0  0  0  0
 30 31  2  0  0  0  0
 30 67  1  0  0  0  0
 31 32  1  0  0  0  0
 31 68  1  0  0  0  0
 32 33  2  0  0  0  0
 32 35  1  0  0  0  0
 33 34  1  0  0  0  0
 33 69  1  0  0  0  0
 34 70  1  0  0  0  0
 35 40  2  0  0  0  0
 35 36  1  0  0  0  0
 36 37  2  0  0  0  0
 36 71  1  0  0  0  0
 37 38  1  0  0  0  0
 37 72  1  0  0  0  0
 38 39  2  0  0  0  0
 38 73  1  0  0  0  0
 39 40  1  0  0  0  0
 39 74  1  0  0  0  0
 40 75  1  0  0  0  0
 41 42  2  0  0  0  0
 41 43  1  0  0  0  0
M  CHG  1  43  -1
M  END
$$$$
