CHEMBL200952
 OpenBabel05272217113D

 55 58  0  0  0  0  0  0  0  0999 V2000
   -0.0187    1.5258    0.0104 C   0  0  0  0  0  0  0  0  0  0  0  0
    0.0021   -0.0041    0.0020 C   0  0  0  0  0  0  0  0  0  0  0  0
    0.7182   -0.4975   -1.2568 C   0  0  0  0  0  0  0  0  0  0  0  0
    0.7386   -2.0043   -1.2651 C   0  0  0  0  0  0  0  0  0  0  0  0
    1.7862   -2.6874   -0.6759 C   0  0  0  0  0  0  0  0  0  0  0  0
    1.8136   -4.0795   -0.6782 C   0  0  0  0  0  0  0  0  0  0  0  0
    0.8052   -4.7913   -1.2634 C   0  0  0  0  0  0  0  0  0  0  0  0
   -0.2615   -4.1197   -1.8636 C   0  0  0  0  0  0  0  0  0  0  0  0
   -0.2990   -2.7133   -1.8603 C   0  0  0  0  0  0  0  0  0  0  0  0
   -1.4539   -2.3361   -2.5085 N   0  0  0  0  0  0  0  0  0  0  0  0
   -1.7360   -1.4199   -2.6568 H   0  0  0  0  0  0  0  0  0  0  0  0
   -2.1446   -3.4475   -2.9132 C   0  0  0  0  0  0  0  0  0  0  0  0
   -1.4741   -4.5556   -2.5619 C   0  0  0  0  0  0  0  0  0  0  0  0
    2.7982   -1.9942   -0.0899 O   0  0  0  0  0  0  0  0  0  0  0  0
    3.8510   -2.7586    0.5013 C   0  0  0  0  0  0  0  0  0  0  0  0
    4.8904   -1.8128    1.1061 C   0  0  0  0  0  0  0  0  0  0  0  0
    6.0176   -2.6312    1.7390 C   0  0  0  0  0  0  0  0  0  0  0  0
    6.9884   -1.7478    2.3039 O   0  0  0  0  0  0  0  0  0  0  0  0
    8.0627   -2.3180    2.9098 C   0  0  0  0  0  0  0  0  0  0  0  0
    8.1861   -3.6933    2.9564 C   0  0  0  0  0  0  0  0  0  0  0  0
    9.2825   -4.2776    3.5741 C   0  0  0  0  0  0  0  0  0  0  0  0
   10.2631   -3.4999    4.1498 C   0  0  0  0  0  0  0  0  0  0  0  0
   10.1611   -2.1123    4.1157 C   0  0  0  0  0  0  0  0  0  0  0  0
    9.0550   -1.5156    3.4859 C   0  0  0  0  0  0  0  0  0  0  0  0
    9.2465   -0.0689    3.6138 C   0  0  0  0  0  0  0  0  0  0  0  0
   10.4001    0.1172    4.2740 C   0  0  0  0  0  0  0  0  0  0  0  0
   10.9569   -1.0934    4.5897 N   0  0  0  0  0  0  0  0  0  0  0  0
   12.2190   -1.2770    5.3104 C   0  0  0  0  0  0  0  0  0  0  0  0
   13.3434   -1.4416    4.3206 C   0  0  0  0  0  0  0  0  0  0  0  0
   13.1118   -1.4086    3.1240 O   0  0  0  0  0  0  0  0  0  0  0  0
   14.4845   -1.6078    4.7163 O   0  5  0  0  0  0  0  0  0  0  0  0
    1.0039    1.9031    0.0027 H   0  0  0  0  0  0  0  0  0  0  0  0
   -0.5459    1.8868   -0.8726 H   0  0  0  0  0  0  0  0  0  0  0  0
   -0.5289    1.8773    0.9072 H   0  0  0  0  0  0  0  0  0  0  0  0
    0.5293   -0.3651    0.8851 H   0  0  0  0  0  0  0  0  0  0  0  0
   -1.0205   -0.3814    0.0098 H   0  0  0  0  0  0  0  0  0  0  0  0
    0.1910   -0.1364   -2.1398 H   0  0  0  0  0  0  0  0  0  0  0  0
    1.7408   -0.1202   -1.2645 H   0  0  0  0  0  0  0  0  0  0  0  0
    2.6381   -4.6003   -0.2142 H   0  0  0  0  0  0  0  0  0  0  0  0
    0.8332   -5.8709   -1.2621 H   0  0  0  0  0  0  0  0  0  0  0  0
   -3.0847   -3.4339   -3.4446 H   0  0  0  0  0  0  0  0  0  0  0  0
   -1.7764   -5.5755   -2.7486 H   0  0  0  0  0  0  0  0  0  0  0  0
    3.4412   -3.3967    1.2842 H   0  0  0  0  0  0  0  0  0  0  0  0
    4.3232   -3.3775   -0.2617 H   0  0  0  0  0  0  0  0  0  0  0  0
    5.3002   -1.1747    0.3231 H   0  0  0  0  0  0  0  0  0  0  0  0
    4.4181   -1.1940    1.8691 H   0  0  0  0  0  0  0  0  0  0  0  0
    5.6078   -3.2693    2.5220 H   0  0  0  0  0  0  0  0  0  0  0  0
    6.4898   -3.2500    0.9760 H   0  0  0  0  0  0  0  0  0  0  0  0
    7.4253   -4.3166    2.5102 H   0  0  0  0  0  0  0  0  0  0  0  0
    9.3680   -5.3538    3.6042 H   0  0  0  0  0  0  0  0  0  0  0  0
   11.1112   -3.9672    4.6282 H   0  0  0  0  0  0  0  0  0  0  0  0
    8.5852    0.7016    3.2460 H   0  0  0  0  0  0  0  0  0  0  0  0
   10.8218    1.0788    4.5269 H   0  0  0  0  0  0  0  0  0  0  0  0
   12.4104   -0.4052    5.9360 H   0  0  0  0  0  0  0  0  0  0  0  0
   12.1535   -2.1665    5.9371 H   0  0  0  0  0  0  0  0  0  0  0  0
  1  2  1  0  0  0  0
  1 32  1  0  0  0  0
  1 33  1  0  0  0  0
  1 34  1  0  0  0  0
  2  3  1  0  0  0  0
  2 35  1  0  0  0  0
  2 36  1  0  0  0  0
  3  4  1  0  0  0  0
  3 37  1  0  0  0  0
  3 38  1  0  0  0  0
  4  9  2  0  0  0  0
  4  5  1  0  0  0  0
  5  6  2  0  0  0  0
  5 14  1  0  0  0  0
  6  7  1  0  0  0  0
  6 39  1  0  0  0  0
  7  8  2  0  0  0  0
  7 40  1  0  0  0  0
  8 13  1  0  0  0  0
  8  9  1  0  0  0  0
  9 10  1  0  0  0  0
 10 11  1  0  0  0  0
 10 12  1  0  0  0  0
 12 13  2  0  0  0  0
 12 41  1  0  0  0  0
 13 42  1  0  0  0  0
 14 15  1  0  0  0  0
 15 16  1  0  0  0  0
 15 43  1  0  0  0  0
 15 44  1  0  0  0  0
 16 17  1  0  0  0  0
 16 45  1  0  0  0  0
 16 46  1  0  0  0  0
 17 18  1  0  0  0  0
 17 47  1  0  0  0  0
 17 48  1  0  0  0  0
 18 19  1  0  0  0  0
 19 24  2  0  0  0  0
 19 20  1  0  0  0  0
 20 21  2  0  0  0  0
 20 49  1  0  0  0  0
 21 22  1  0  0  0  0
 21 50  1  0  0  0  0
 22 23  2  0  0  0  0
 22 51  1  0  0  0  0
 23 27  1  0  0  0  0
 23 24  1  0  0  0  0
 24 25  1  0  0  0  0
 25 26  2  0  0  0  0
 25 52  1  0  0  0  0
 26 27  1  0  0  0  0
 26 53  1  0  0  0  0
 27 28  1  0  0  0  0
 28 29  1  0  0  0  0
 28 54  1  0  0  0  0
 28 55  1  0  0  0  0
 29 30  2  0  0  0  0
 29 31  1  0  0  0  0
M  CHG  1  31  -1
M  END
$$$$
