CHEMBL1075703
 OpenBabel05272217113D

 64 68  0  0  0  0  0  0  0  0999 V2000
   -0.4925    2.0092   -0.7886 C   0  0  0  0  0  0  0  0  0  0  0  0
   -0.3839    0.5149   -0.6265 C   0  0  0  0  0  0  0  0  0  0  0  0
   -0.3217   -0.2982   -1.7417 C   0  0  0  0  0  0  0  0  0  0  0  0
   -0.2213   -1.6732   -1.5925 C   0  0  0  0  0  0  0  0  0  0  0  0
   -0.1833   -2.2323   -0.3236 C   0  0  0  0  0  0  0  0  0  0  0  0
   -0.2456   -1.4195    0.7913 C   0  0  0  0  0  0  0  0  0  0  0  0
   -0.3407   -0.0436    0.6421 C   0  0  0  0  0  0  0  0  0  0  0  0
   -0.3963    0.7571    1.7398 O   0  0  0  0  0  0  0  0  0  0  0  0
   -0.3469    0.1141    3.0150 C   0  0  0  0  0  0  0  0  0  0  0  0
   -0.4198    1.1527    4.1044 C   0  0  0  0  0  0  0  0  0  0  0  0
   -0.5059    2.3341    3.8156 O   0  0  0  0  0  0  0  0  0  0  0  0
   -0.3925    0.8117    5.2747 O   0  5  0  0  0  0  0  0  0  0  0  0
   -0.1605   -2.4735   -2.6902 O   0  0  0  0  0  0  0  0  0  0  0  0
   -0.0579   -3.8805   -2.4624 C   0  0  0  0  0  0  0  0  0  0  0  0
   -0.0025   -4.6008   -3.7849 C   0  0  0  0  0  0  0  0  0  0  0  0
    1.0540   -4.9156   -4.4877 N   0  0  0  0  0  0  0  0  0  0  0  0
    0.9541   -5.5551   -5.6423 C   0  0  0  0  0  0  0  0  0  0  0  0
   -0.3395   -5.8671   -6.0543 C   0  0  0  0  0  0  0  0  0  0  0  0
   -1.2853   -5.1939   -4.6976 S   0  0  0  0  0  0  0  0  0  0  0  0
   -0.8000   -6.5642   -7.2717 C   0  0  0  0  0  0  0  0  0  0  0  0
   -0.1996   -7.7635   -7.6615 C   0  0  0  0  0  0  0  0  0  0  0  0
   -0.6327   -8.4109   -8.7988 C   0  0  0  0  0  0  0  0  0  0  0  0
   -1.6642   -7.8724   -9.5566 C   0  0  0  0  0  0  0  0  0  0  0  0
   -2.2637   -6.6801   -9.1730 C   0  0  0  0  0  0  0  0  0  0  0  0
   -1.8411   -6.0291   -8.0337 C   0  0  0  0  0  0  0  0  0  0  0  0
   -2.0880   -8.5140  -10.6771 O   0  0  0  0  0  0  0  0  0  0  0  0
   -3.1531   -7.9050  -11.4097 C   0  0  0  0  0  0  0  0  0  0  0  0
   -2.7595   -6.6308  -11.8323 F   0  0  0  0  0  0  0  0  0  0  0  0
   -3.4614   -8.6916  -12.5248 F   0  0  0  0  0  0  0  0  0  0  0  0
   -4.2811   -7.7965  -10.5893 F   0  0  0  0  0  0  0  0  0  0  0  0
    2.1442   -5.9162   -6.4468 C   0  0  0  0  0  0  0  0  0  0  0  0
    2.1318   -5.7388   -7.8302 C   0  0  0  0  0  0  0  0  0  0  0  0
    3.2407   -6.0754   -8.5810 C   0  0  0  0  0  0  0  0  0  0  0  0
    4.3669   -6.5893   -7.9577 C   0  0  0  0  0  0  0  0  0  0  0  0
    4.3851   -6.7682   -6.5807 C   0  0  0  0  0  0  0  0  0  0  0  0
    3.2813   -6.4290   -5.8207 C   0  0  0  0  0  0  0  0  0  0  0  0
    5.5022   -7.2744   -5.9814 O   0  0  0  0  0  0  0  0  0  0  0  0
    5.7999   -8.6422   -6.2680 C   0  0  0  0  0  0  0  0  0  0  0  0
    6.5794   -8.7636   -7.5681 C   0  0  0  0  0  0  0  0  0  0  0  0
    5.7668   -8.3176   -8.7736 C   0  0  0  0  0  0  0  0  0  0  0  0
    5.4666   -6.9229   -8.6947 O   0  0  0  0  0  0  0  0  0  0  0  0
    0.5063    2.4437   -0.8299 H   0  0  0  0  0  0  0  0  0  0  0  0
   -1.0261    2.2368   -1.7114 H   0  0  0  0  0  0  0  0  0  0  0  0
   -1.0361    2.4280    0.0583 H   0  0  0  0  0  0  0  0  0  0  0  0
   -0.3515    0.1371   -2.7297 H   0  0  0  0  0  0  0  0  0  0  0  0
   -0.1055   -3.3032   -0.2074 H   0  0  0  0  0  0  0  0  0  0  0  0
   -0.2168   -1.8548    1.7792 H   0  0  0  0  0  0  0  0  0  0  0  0
   -1.1894   -0.5711    3.1093 H   0  0  0  0  0  0  0  0  0  0  0  0
    0.5859   -0.4425    3.1054 H   0  0  0  0  0  0  0  0  0  0  0  0
    0.8488   -4.0916   -1.8954 H   0  0  0  0  0  0  0  0  0  0  0  0
   -0.9264   -4.2216   -1.8990 H   0  0  0  0  0  0  0  0  0  0  0  0
    0.6030   -8.1828   -7.0730 H   0  0  0  0  0  0  0  0  0  0  0  0
   -0.1688   -9.3382   -9.1012 H   0  0  0  0  0  0  0  0  0  0  0  0
   -3.0654   -6.2646   -9.7654 H   0  0  0  0  0  0  0  0  0  0  0  0
   -2.3112   -5.1043   -7.7334 H   0  0  0  0  0  0  0  0  0  0  0  0
    1.2538   -5.3380   -8.3148 H   0  0  0  0  0  0  0  0  0  0  0  0
    3.2303   -5.9386   -9.6523 H   0  0  0  0  0  0  0  0  0  0  0  0
    3.2970   -6.5644   -4.7494 H   0  0  0  0  0  0  0  0  0  0  0  0
    6.3932   -9.0584   -5.4538 H   0  0  0  0  0  0  0  0  0  0  0  0
    4.8685   -9.2017   -6.3546 H   0  0  0  0  0  0  0  0  0  0  0  0
    7.4771   -8.1491   -7.5004 H   0  0  0  0  0  0  0  0  0  0  0  0
    6.8751   -9.8036   -7.7067 H   0  0  0  0  0  0  0  0  0  0  0  0
    6.3371   -8.5110   -9.6821 H   0  0  0  0  0  0  0  0  0  0  0  0
    4.8359   -8.8835   -8.8080 H   0  0  0  0  0  0  0  0  0  0  0  0
  1  2  1  0  0  0  0
  1 42  1  0  0  0  0
  1 43  1  0  0  0  0
  1 44  1  0  0  0  0
  2  7  2  0  0  0  0
  2  3  1  0  0  0  0
  3  4  2  0  0  0  0
  3 45  1  0  0  0  0
  4  5  1  0  0  0  0
  4 13  1  0  0  0  0
  5  6  2  0  0  0  0
  5 46  1  0  0  0  0
  6  7  1  0  0  0  0
  6 47  1  0  0  0  0
  7  8  1  0  0  0  0
  8  9  1  0  0  0  0
  9 10  1  0  0  0  0
  9 48  1  0  0  0  0
  9 49  1  0  0  0  0
 10 11  2  0  0  0  0
 10 12  1  0  0  0  0
 13 14  1  0  0  0  0
 14 15  1  0  0  0  0
 14 50  1  0  0  0  0
 14 51  1  0  0  0  0
 15 19  1  0  0  0  0
 15 16  2  0  0  0  0
 16 17  1  0  0  0  0
 17 18  2  0  0  0  0
 17 31  1  0  0  0  0
 18 19  1  0  0  0  0
 18 20  1  0  0  0  0
 20 25  2  0  0  0  0
 20 21  1  0  0  0  0
 21 22  2  0  0  0  0
 21 52  1  0  0  0  0
 22 23  1  0  0  0  0
 22 53  1  0  0  0  0
 23 24  2  0  0  0  0
 23 26  1  0  0  0  0
 24 25  1  0  0  0  0
 24 54  1  0  0  0  0
 25 55  1  0  0  0  0
 26 27  1  0  0  0  0
 27 28  1  0  0  0  0
 27 29  1  0  0  0  0
 27 30  1  0  0  0  0
 31 36  2  0  0  0  0
 31 32  1  0  0  0  0
 32 33  2  0  0  0  0
 32 56  1  0  0  0  0
 33 34  1  0  0  0  0
 33 57  1  0  0  0  0
 34 41  1  0  0  0  0
 34 35  2  0  0  0  0
 35 36  1  0  0  0  0
 35 37  1  0  0  0  0
 36 58  1  0  0  0  0
 37 38  1  0  0  0  0
 38 39  1  0  0  0  0
 38 59  1  0  0  0  0
 38 60  1  0  0  0  0
 39 40  1  0  0  0  0
 39 61  1  0  0  0  0
 39 62  1  0  0  0  0
 40 41  1  0  0  0  0
 40 63  1  0  0  0  0
 40 64  1  0  0  0  0
M  CHG  1  12  -1
M  END
$$$$
