CHEMBL213355
 OpenBabel05272217113D

 54 55  0  0  0  0  0  0  0  0999 V2000
   -0.0187    1.5258    0.0104 C   0  0  0  0  0  0  0  0  0  0  0  0
    0.0021   -0.0041    0.0020 C   0  0  0  0  0  0  0  0  0  0  0  0
   -1.4333   -0.5336    0.0129 C   0  0  0  0  0  0  0  0  0  0  0  0
   -1.4129   -2.0405    0.0046 C   0  0  0  0  0  0  0  0  0  0  0  0
   -1.5134   -2.7268   -1.1904 C   0  0  0  0  0  0  0  0  0  0  0  0
   -1.4953   -4.1091   -1.1986 C   0  0  0  0  0  0  0  0  0  0  0  0
   -1.3760   -4.8084   -0.0116 C   0  0  0  0  0  0  0  0  0  0  0  0
   -1.2747   -4.1270    1.1856 C   0  0  0  0  0  0  0  0  0  0  0  0
   -1.2874   -2.7396    1.1961 C   0  0  0  0  0  0  0  0  0  0  0  0
   -1.1822   -2.0667    2.3721 O   0  0  0  0  0  0  0  0  0  0  0  0
   -1.0560   -2.8517    3.5596 C   0  0  0  0  0  0  0  0  0  0  0  0
   -0.9506   -1.9266    4.7737 C   0  0  0  0  0  0  0  0  0  0  0  0
   -0.8154   -2.7670    6.0450 C   0  0  0  0  0  0  0  0  0  0  0  0
   -0.7169   -1.9030    7.1789 O   0  0  0  0  0  0  0  0  0  0  0  0
   -0.5904   -2.4946    8.3967 C   0  0  0  0  0  0  0  0  0  0  0  0
   -0.5560   -3.8779    8.4956 C   0  0  0  0  0  0  0  0  0  0  0  0
   -0.4279   -4.4788    9.7325 C   0  0  0  0  0  0  0  0  0  0  0  0
   -0.3331   -3.6991   10.8760 C   0  0  0  0  0  0  0  0  0  0  0  0
   -0.3670   -2.3163   10.7771 C   0  0  0  0  0  0  0  0  0  0  0  0
   -0.4899   -1.7151    9.5393 C   0  0  0  0  0  0  0  0  0  0  0  0
   -0.2641   -1.4693   12.0192 C   0  0  0  0  0  0  0  0  0  0  0  0
   -0.2075   -4.2908   12.0939 O   0  0  0  0  0  0  0  0  0  0  0  0
   -0.1800   -5.7192   12.1214 C   0  0  0  0  0  0  0  0  0  0  0  0
   -0.0369   -6.1915   13.5453 C   0  0  0  0  0  0  0  0  0  0  0  0
    0.0349   -5.3801   14.4524 O   0  0  0  0  0  0  0  0  0  0  0  0
    0.0071   -7.3851   13.7902 O   0  5  0  0  0  0  0  0  0  0  0  0
   -1.6061   -4.8551   -2.5033 C   0  0  0  0  0  0  0  0  0  0  0  0
   -0.3272   -5.0679   -3.0289 F   0  0  0  0  0  0  0  0  0  0  0  0
   -2.2313   -6.0873   -2.2842 F   0  0  0  0  0  0  0  0  0  0  0  0
   -2.3628   -4.1025   -3.4079 F   0  0  0  0  0  0  0  0  0  0  0  0
    1.0039    1.9031    0.0027 H   0  0  0  0  0  0  0  0  0  0  0  0
   -0.5459    1.8868   -0.8726 H   0  0  0  0  0  0  0  0  0  0  0  0
   -0.5289    1.8773    0.9072 H   0  0  0  0  0  0  0  0  0  0  0  0
    0.5123   -0.3556   -0.8948 H   0  0  0  0  0  0  0  0  0  0  0  0
    0.5293   -0.3651    0.8851 H   0  0  0  0  0  0  0  0  0  0  0  0
   -1.9435   -0.1821    0.9097 H   0  0  0  0  0  0  0  0  0  0  0  0
   -1.9605   -0.1726   -0.8702 H   0  0  0  0  0  0  0  0  0  0  0  0
   -1.6067   -2.1829   -2.1187 H   0  0  0  0  0  0  0  0  0  0  0  0
   -1.3624   -5.8883   -0.0206 H   0  0  0  0  0  0  0  0  0  0  0  0
   -1.1816   -4.6736    2.1124 H   0  0  0  0  0  0  0  0  0  0  0  0
   -1.9311   -3.4927    3.6661 H   0  0  0  0  0  0  0  0  0  0  0  0
   -0.1596   -3.4684    3.4938 H   0  0  0  0  0  0  0  0  0  0  0  0
   -0.0755   -1.2855    4.6671 H   0  0  0  0  0  0  0  0  0  0  0  0
   -1.8469   -1.3099    4.8394 H   0  0  0  0  0  0  0  0  0  0  0  0
   -1.6905   -3.4081    6.1515 H   0  0  0  0  0  0  0  0  0  0  0  0
    0.0810   -3.3837    5.9792 H   0  0  0  0  0  0  0  0  0  0  0  0
   -0.6298   -4.4849    7.6054 H   0  0  0  0  0  0  0  0  0  0  0  0
   -0.4019   -5.5557    9.8096 H   0  0  0  0  0  0  0  0  0  0  0  0
   -0.5122   -0.6381    9.4618 H   0  0  0  0  0  0  0  0  0  0  0  0
    0.7836   -1.2469   12.2216 H   0  0  0  0  0  0  0  0  0  0  0  0
   -0.8109   -0.5382   11.8705 H   0  0  0  0  0  0  0  0  0  0  0  0
   -0.6905   -2.0100   12.8641 H   0  0  0  0  0  0  0  0  0  0  0  0
   -1.1072   -6.1086   11.7009 H   0  0  0  0  0  0  0  0  0  0  0  0
    0.6646   -6.0778   11.5330 H   0  0  0  0  0  0  0  0  0  0  0  0
  1  2  1  0  0  0  0
  1 31  1  0  0  0  0
  1 32  1  0  0  0  0
  1 33  1  0  0  0  0
  2  3  1  0  0  0  0
  2 34  1  0  0  0  0
  2 35  1  0  0  0  0
  3  4  1  0  0  0  0
  3 36  1  0  0  0  0
  3 37  1  0  0  0  0
  4  9  2  0  0  0  0
  4  5  1  0  0  0  0
  5  6  2  0  0  0  0
  5 38  1  0  0  0  0
  6  7  1  0  0  0  0
  6 27  1  0  0  0  0
  7  8  2  0  0  0  0
  7 39  1  0  0  0  0
  8  9  1  0  0  0  0
  8 40  1  0  0  0  0
  9 10  1  0  0  0  0
 10 11  1  0  0  0  0
 11 12  1  0  0  0  0
 11 41  1  0  0  0  0
 11 42  1  0  0  0  0
 12 13  1  0  0  0  0
 12 43  1  0  0  0  0
 12 44  1  0  0  0  0
 13 14  1  0  0  0  0
 13 45  1  0  0  0  0
 13 46  1  0  0  0  0
 14 15  1  0  0  0  0
 15 20  2  0  0  0  0
 15 16  1  0  0  0  0
 16 17  2  0  0  0  0
 16 47  1  0  0  0  0
 17 18  1  0  0  0  0
 17 48  1  0  0  0  0
 18 19  2  0  0  0  0
 18 22  1  0  0  0  0
 19 20  1  0  0  0  0
 19 21  1  0  0  0  0
 20 49  1  0  0  0  0
 21 50  1  0  0  0  0
 21 51  1  0  0  0  0
 21 52  1  0  0  0  0
 22 23  1  0  0  0  0
 23 24  1  0  0  0  0
 23 53  1  0  0  0  0
 23 54  1  0  0  0  0
 24 25  2  0  0  0  0
 24 26  1  0  0  0  0
 27 28  1  0  0  0  0
 27 29  1  0  0  0  0
 27 30  1  0  0  0  0
M  CHG  1  26  -1
M  END
$$$$
