CHEMBL234589
 OpenBabel05272217113D

 51 54  0  0  0  0  0  0  0  0999 V2000
   -0.0167    1.3781    0.0096 C   0  0  0  0  0  0  0  0  0  0  0  0
    1.1709    2.0855    0.0021 C   0  0  0  0  0  0  0  0  0  0  0  0
    2.3773    1.4107   -0.0130 C   0  0  0  0  0  0  0  0  0  0  0  0
    2.3960    0.0285   -0.0201 C   0  0  0  0  0  0  0  0  0  0  0  0
    1.2085   -0.6789   -0.0117 C   0  0  0  0  0  0  0  0  0  0  0  0
    0.0021   -0.0041    0.0020 C   0  0  0  0  0  0  0  0  0  0  0  0
   -1.2926   -0.7753    0.0107 C   0  0  0  0  0  0  0  0  0  0  0  0
   -1.7152   -1.0118   -1.3338 O   0  0  0  0  0  0  0  0  0  0  0  0
   -2.8744   -1.7003   -1.5041 C   0  0  0  0  0  0  0  0  0  0  0  0
   -3.5935   -2.1342   -0.3998 C   0  0  0  0  0  0  0  0  0  0  0  0
   -4.7718   -2.8335   -0.5756 C   0  0  0  0  0  0  0  0  0  0  0  0
   -5.2345   -3.1014   -1.8507 C   0  0  0  0  0  0  0  0  0  0  0  0
   -4.5195   -2.6704   -2.9529 C   0  0  0  0  0  0  0  0  0  0  0  0
   -3.3437   -1.9654   -2.7824 C   0  0  0  0  0  0  0  0  0  0  0  0
   -6.5200   -3.8648   -2.0396 C   0  0  0  0  0  0  0  0  0  0  0  0
   -7.5920   -2.9675   -2.0915 F   0  0  0  0  0  0  0  0  0  0  0  0
   -6.4605   -4.5900   -3.2345 F   0  0  0  0  0  0  0  0  0  0  0  0
   -6.7009   -4.7458   -0.9679 F   0  0  0  0  0  0  0  0  0  0  0  0
    3.6720    2.1819   -0.0222 C   0  0  0  0  0  0  0  0  0  0  0  0
    4.0946    2.4194    1.3220 O   0  0  0  0  0  0  0  0  0  0  0  0
    5.2542    3.1083    1.4919 C   0  0  0  0  0  0  0  0  0  0  0  0
    5.9744    3.5557    0.3866 C   0  0  0  0  0  0  0  0  0  0  0  0
    7.1360    4.2461    0.5289 C   0  0  0  0  0  0  0  0  0  0  0  0
    7.6548    4.5354    1.8135 C   0  0  0  0  0  0  0  0  0  0  0  0
    6.9077    4.0724    2.9180 C   0  0  0  0  0  0  0  0  0  0  0  0
    5.7275    3.3767    2.7656 C   0  0  0  0  0  0  0  0  0  0  0  0
    7.8535    4.6138    4.3180 S   0  0  0  0  0  0  0  0  0  0  0  0
    9.1872    5.4224    3.4549 C   0  0  0  0  0  0  0  0  0  0  0  0
    8.8716    5.2550    2.1632 C   0  0  0  0  0  0  0  0  0  0  0  0
    9.7667    5.8063    1.0834 C   0  0  0  0  0  0  0  0  0  0  0  0
    9.2636    7.1613    0.6570 C   0  0  0  0  0  0  0  0  0  0  0  0
    8.2702    7.6354    1.1814 O   0  0  0  0  0  0  0  0  0  0  0  0
    9.8499    7.7835   -0.2123 O   0  5  0  0  0  0  0  0  0  0  0  0
   -0.9591    1.9053    0.0259 H   0  0  0  0  0  0  0  0  0  0  0  0
    1.1563    3.1654    0.0076 H   0  0  0  0  0  0  0  0  0  0  0  0
    3.3385   -0.4987   -0.0326 H   0  0  0  0  0  0  0  0  0  0  0  0
    1.2231   -1.7588   -0.0179 H   0  0  0  0  0  0  0  0  0  0  0  0
   -1.1443   -1.7285    0.5180 H   0  0  0  0  0  0  0  0  0  0  0  0
   -2.0551   -0.1993    0.5352 H   0  0  0  0  0  0  0  0  0  0  0  0
   -3.2321   -1.9258    0.5964 H   0  0  0  0  0  0  0  0  0  0  0  0
   -5.3320   -3.1715    0.2837 H   0  0  0  0  0  0  0  0  0  0  0  0
   -4.8827   -2.8812   -3.9478 H   0  0  0  0  0  0  0  0  0  0  0  0
   -2.7879   -1.6251   -3.6436 H   0  0  0  0  0  0  0  0  0  0  0  0
    4.4344    1.6056   -0.5463 H   0  0  0  0  0  0  0  0  0  0  0  0
    3.5237    3.1349   -0.5302 H   0  0  0  0  0  0  0  0  0  0  0  0
    5.6014    3.3488   -0.6056 H   0  0  0  0  0  0  0  0  0  0  0  0
    7.6701    4.5781   -0.3491 H   0  0  0  0  0  0  0  0  0  0  0  0
    5.1784    3.0400    3.6325 H   0  0  0  0  0  0  0  0  0  0  0  0
   10.0452    5.9275    3.8733 H   0  0  0  0  0  0  0  0  0  0  0  0
   10.7828    5.9001    1.4665 H   0  0  0  0  0  0  0  0  0  0  0  0
    9.7619    5.1312    0.2276 H   0  0  0  0  0  0  0  0  0  0  0  0
  1  6  2  0  0  0  0
  1  2  1  0  0  0  0
  1 34  1  0  0  0  0
  2  3  2  0  0  0  0
  2 35  1  0  0  0  0
  3  4  1  0  0  0  0
  3 19  1  0  0  0  0
  4  5  2  0  0  0  0
  4 36  1  0  0  0  0
  5  6  1  0  0  0  0
  5 37  1  0  0  0  0
  6  7  1  0  0  0  0
  7  8  1  0  0  0  0
  7 38  1  0  0  0  0
  7 39  1  0  0  0  0
  8  9  1  0  0  0  0
  9 14  2  0  0  0  0
  9 10  1  0  0  0  0
 10 11  2  0  0  0  0
 10 40  1  0  0  0  0
 11 12  1  0  0  0  0
 11 41  1  0  0  0  0
 12 13  2  0  0  0  0
 12 15  1  0  0  0  0
 13 14  1  0  0  0  0
 13 42  1  0  0  0  0
 14 43  1  0  0  0  0
 15 16  1  0  0  0  0
 15 17  1  0  0  0  0
 15 18  1  0  0  0  0
 19 20  1  0  0  0  0
 19 44  1  0  0  0  0
 19 45  1  0  0  0  0
 20 21  1  0  0  0  0
 21 26  2  0  0  0  0
 21 22  1  0  0  0  0
 22 23  2  0  0  0  0
 22 46  1  0  0  0  0
 23 24  1  0  0  0  0
 23 47  1  0  0  0  0
 24 29  1  0  0  0  0
 24 25  2  0  0  0  0
 25 26  1  0  0  0  0
 25 27  1  0  0  0  0
 26 48  1  0  0  0  0
 27 28  1  0  0  0  0
 28 29  2  0  0  0  0
 28 49  1  0  0  0  0
 29 30  1  0  0  0  0
 30 31  1  0  0  0  0
 30 50  1  0  0  0  0
 30 51  1  0  0  0  0
 31 32  2  0  0  0  0
 31 33  1  0  0  0  0
M  CHG  1  33  -1
M  END
$$$$
