CHEMBL240437
 OpenBabel05272217113D

 70 73  0  0  1  0  0  0  0  0999 V2000
   -9.9737    4.6677   -2.8023 C   0  0  0  0  0  0  0  0  0  0  0  0
   -8.5734    4.5961   -2.1902 C   0  0  0  0  0  0  0  0  0  0  0  0
   -8.2717    3.1746   -1.7910 C   0  0  0  0  0  0  0  0  0  0  0  0
   -8.6033    2.7296   -0.5239 C   0  0  0  0  0  0  0  0  0  0  0  0
   -8.3294    1.4289   -0.1529 C   0  0  0  0  0  0  0  0  0  0  0  0
   -7.7176    0.5631   -1.0576 C   0  0  0  0  0  0  0  0  0  0  0  0
   -7.3857    1.0169   -2.3329 C   0  0  0  0  0  0  0  0  0  0  0  0
   -7.6695    2.3181   -2.6949 C   0  0  0  0  0  0  0  0  0  0  0  0
   -7.4203   -0.8358   -0.6645 C   0  0  0  0  0  0  0  0  0  0  0  0
   -6.8329   -1.6419   -1.5381 N   0  3  0  0  0  0  0  0  0  0  0  0
   -6.5517   -2.8969   -1.2239 C   0  0  0  0  0  0  0  0  0  0  0  0
   -6.8770   -3.3683    0.0339 C   0  0  0  0  0  0  0  0  0  0  0  0
   -7.4952   -2.4962    0.9334 C   0  0  0  0  0  0  0  0  0  0  0  0
   -7.7435   -1.2476    0.5533 N   0  0  0  0  0  0  0  0  0  0  0  0
   -7.8397   -2.9256    2.2048 N   0  0  0  0  0  0  0  0  0  0  0  0
   -9.1483   -3.5404    2.4409 C   0  0  0  0  0  0  0  0  0  0  0  0
   -6.8952   -2.7649    3.3132 C   0  0  0  0  0  0  0  0  0  0  0  0
   -7.1247   -1.4103    3.9864 C   0  0  0  0  0  0  0  0  0  0  0  0
   -6.1383   -1.2424    5.1439 C   0  0  0  0  0  0  0  0  0  0  0  0
   -6.3527    0.0228    5.7727 O   0  0  0  0  0  0  0  0  0  0  0  0
   -5.5530    0.3309    6.8275 C   0  0  0  0  0  0  0  0  0  0  0  0
   -4.5779   -0.5632    7.2457 C   0  0  0  0  0  0  0  0  0  0  0  0
   -3.7683   -0.2458    8.3173 C   0  0  0  0  0  0  0  0  0  0  0  0
   -3.9251    0.9618    8.9780 C   0  0  0  0  0  0  0  0  0  0  0  0
   -4.8961    1.8543    8.5632 C   0  0  0  0  0  0  0  0  0  0  0  0
   -5.7055    1.5415    7.4848 C   0  0  0  0  0  0  0  0  0  0  0  0
   -4.8654    3.0879    9.4401 C   0  0  0  0  0  0  0  0  0  0  0  0
   -4.0742    2.6699   10.6976 C   0  0  0  0  0  0  0  0  0  0  0  0
   -3.1757    1.5352   10.1618 C   0  0  1  0  0  0  0  0  0  0  0  0
   -2.2127    1.9340    9.8428 H   0  0  0  0  0  0  0  0  0  0  0  0
   -2.9781    0.4628   11.2351 C   0  0  0  0  0  0  0  0  0  0  0  0
   -2.1228    1.0155   12.3460 C   0  0  0  0  0  0  0  0  0  0  0  0
   -1.7790    2.1851   12.3264 O   0  0  0  0  0  0  0  0  0  0  0  0
   -1.7746    0.2930   13.2643 O   0  5  0  0  0  0  0  0  0  0  0  0
   -6.5723   -4.7911    0.4262 C   0  0  0  0  0  0  0  0  0  0  0  0
   -7.7793   -5.6768    0.1105 C   0  0  0  0  0  0  0  0  0  0  0  0
  -10.1919    5.6958   -3.0911 H   0  0  0  0  0  0  0  0  0  0  0  0
  -10.0189    4.0258   -3.6822 H   0  0  0  0  0  0  0  0  0  0  0  0
  -10.7080    4.3324   -2.0699 H   0  0  0  0  0  0  0  0  0  0  0  0
   -7.8391    4.9314   -2.9227 H   0  0  0  0  0  0  0  0  0  0  0  0
   -8.5282    5.2379   -1.3104 H   0  0  0  0  0  0  0  0  0  0  0  0
   -9.0771    3.4015    0.1765 H   0  0  0  0  0  0  0  0  0  0  0  0
   -8.5884    1.0826    0.8368 H   0  0  0  0  0  0  0  0  0  0  0  0
   -6.9111    0.3504   -3.0378 H   0  0  0  0  0  0  0  0  0  0  0  0
   -7.4171    2.6694   -3.6845 H   0  0  0  0  0  0  0  0  0  0  0  0
   -6.0734   -3.5454   -1.9430 H   0  0  0  0  0  0  0  0  0  0  0  0
   -9.0625   -4.6233    2.3512 H   0  0  0  0  0  0  0  0  0  0  0  0
   -9.4944   -3.2850    3.4424 H   0  0  0  0  0  0  0  0  0  0  0  0
   -9.8618   -3.1702    1.7046 H   0  0  0  0  0  0  0  0  0  0  0  0
   -7.0489   -3.5625    4.0400 H   0  0  0  0  0  0  0  0  0  0  0  0
   -5.8754   -2.8128    2.9313 H   0  0  0  0  0  0  0  0  0  0  0  0
   -6.9710   -0.6126    3.2596 H   0  0  0  0  0  0  0  0  0  0  0  0
   -8.1445   -1.3624    4.3682 H   0  0  0  0  0  0  0  0  0  0  0  0
   -6.2920   -2.0401    5.8707 H   0  0  0  0  0  0  0  0  0  0  0  0
   -5.1185   -1.2903    4.7621 H   0  0  0  0  0  0  0  0  0  0  0  0
   -4.4530   -1.5060    6.7338 H   0  0  0  0  0  0  0  0  0  0  0  0
   -3.0094   -0.9420    8.6425 H   0  0  0  0  0  0  0  0  0  0  0  0
   -6.4608    2.2406    7.1575 H   0  0  0  0  0  0  0  0  0  0  0  0
   -4.3566    3.9040    8.9270 H   0  0  0  0  0  0  0  0  0  0  0  0
   -5.8785    3.3841    9.7117 H   0  0  0  0  0  0  0  0  0  0  0  0
   -3.4715    3.4986   11.0694 H   0  0  0  0  0  0  0  0  0  0  0  0
   -4.7455    2.2995   11.4724 H   0  0  0  0  0  0  0  0  0  0  0  0
   -3.9476    0.1669   11.6359 H   0  0  0  0  0  0  0  0  0  0  0  0
   -2.4865   -0.4050   10.7954 H   0  0  0  0  0  0  0  0  0  0  0  0
   -5.7061   -5.1446   -0.1331 H   0  0  0  0  0  0  0  0  0  0  0  0
   -6.3583   -4.8357    1.4940 H   0  0  0  0  0  0  0  0  0  0  0  0
   -7.9259   -5.7201   -0.9687 H   0  0  0  0  0  0  0  0  0  0  0  0
   -7.6027   -6.6818    0.4938 H   0  0  0  0  0  0  0  0  0  0  0  0
   -8.6693   -5.2595    0.5816 H   0  0  0  0  0  0  0  0  0  0  0  0
   -6.6064   -1.3075   -2.4201 H   0  0  0  0  0  0  0  0  0  0  0  0
  1  2  1  0  0  0  0
  1 37  1  0  0  0  0
  1 38  1  0  0  0  0
  1 39  1  0  0  0  0
  2  3  1  0  0  0  0
  2 40  1  0  0  0  0
  2 41  1  0  0  0  0
  3  8  2  0  0  0  0
  3  4  1  0  0  0  0
  4  5  2  0  0  0  0
  4 42  1  0  0  0  0
  5  6  1  0  0  0  0
  5 43  1  0  0  0  0
  6  7  2  0  0  0  0
  6  9  1  0  0  0  0
  7  8  1  0  0  0  0
  7 44  1  0  0  0  0
  8 45  1  0  0  0  0
  9 14  2  0  0  0  0
  9 10  1  0  0  0  0
 10 11  2  0  0  0  0
 10 70  1  0  0  0  0
 11 12  1  0  0  0  0
 11 46  1  0  0  0  0
 12 13  2  0  0  0  0
 12 35  1  0  0  0  0
 13 14  1  0  0  0  0
 13 15  1  0  0  0  0
 15 16  1  0  0  0  0
 15 17  1  0  0  0  0
 16 47  1  0  0  0  0
 16 48  1  0  0  0  0
 16 49  1  0  0  0  0
 17 18  1  0  0  0  0
 17 50  1  0  0  0  0
 17 51  1  0  0  0  0
 18 19  1  0  0  0  0
 18 52  1  0  0  0  0
 18 53  1  0  0  0  0
 19 20  1  0  0  0  0
 19 54  1  0  0  0  0
 19 55  1  0  0  0  0
 20 21  1  0  0  0  0
 21 26  2  0  0  0  0
 21 22  1  0  0  0  0
 22 23  2  0  0  0  0
 22 56  1  0  0  0  0
 23 24  1  0  0  0  0
 23 57  1  0  0  0  0
 24 29  1  0  0  0  0
 24 25  2  0  0  0  0
 25 26  1  0  0  0  0
 25 27  1  0  0  0  0
 26 58  1  0  0  0  0
 27 28  1  0  0  0  0
 27 59  1  0  0  0  0
 27 60  1  0  0  0  0
 28 29  1  0  0  0  0
 28 61  1  0  0  0  0
 28 62  1  0  0  0  0
 29 30  1  6  0  0  0
 29 31  1  0  0  0  0
 31 32  1  0  0  0  0
 31 63  1  0  0  0  0
 31 64  1  0  0  0  0
 32 33  2  0  0  0  0
 32 34  1  0  0  0  0
 35 36  1  0  0  0  0
 35 65  1  0  0  0  0
 35 66  1  0  0  0  0
 36 67  1  0  0  0  0
 36 68  1  0  0  0  0
 36 69  1  0  0  0  0
M  CHG  2  10   1  34  -1
M  END
$$$$
