CHEMBL1075704
 OpenBabel05272217113D

 67 71  0  0  0  0  0  0  0  0999 V2000
   -0.4941    2.0091   -0.7884 C   0  0  0  0  0  0  0  0  0  0  0  0
   -0.3855    0.5148   -0.6264 C   0  0  0  0  0  0  0  0  0  0  0  0
   -0.3229   -0.2983   -1.7416 C   0  0  0  0  0  0  0  0  0  0  0  0
   -0.2225   -1.6733   -1.5924 C   0  0  0  0  0  0  0  0  0  0  0  0
   -0.1849   -2.2324   -0.3235 C   0  0  0  0  0  0  0  0  0  0  0  0
   -0.2475   -1.4197    0.7914 C   0  0  0  0  0  0  0  0  0  0  0  0
   -0.3426   -0.0438    0.6422 C   0  0  0  0  0  0  0  0  0  0  0  0
   -0.3986    0.7569    1.7399 O   0  0  0  0  0  0  0  0  0  0  0  0
   -0.3496    0.1138    3.0151 C   0  0  0  0  0  0  0  0  0  0  0  0
   -0.4228    1.1525    4.1046 C   0  0  0  0  0  0  0  0  0  0  0  0
   -0.5089    2.3339    3.8158 O   0  0  0  0  0  0  0  0  0  0  0  0
   -0.3959    0.8114    5.2748 O   0  5  0  0  0  0  0  0  0  0  0  0
   -0.1613   -2.4736   -2.6901 O   0  0  0  0  0  0  0  0  0  0  0  0
   -0.0587   -3.8806   -2.4623 C   0  0  0  0  0  0  0  0  0  0  0  0
   -0.0029   -4.6009   -3.7849 C   0  0  0  0  0  0  0  0  0  0  0  0
    1.0539   -4.9155   -4.4873 N   0  0  0  0  0  0  0  0  0  0  0  0
    0.9542   -5.5543   -5.6423 C   0  0  0  0  0  0  0  0  0  0  0  0
   -0.3392   -5.8658   -6.0550 C   0  0  0  0  0  0  0  0  0  0  0  0
   -1.2854   -5.1939   -4.6979 S   0  0  0  0  0  0  0  0  0  0  0  0
   -0.7994   -6.5627   -7.2726 C   0  0  0  0  0  0  0  0  0  0  0  0
   -0.1992   -7.7623   -7.6622 C   0  0  0  0  0  0  0  0  0  0  0  0
   -0.6319   -8.4095   -8.7997 C   0  0  0  0  0  0  0  0  0  0  0  0
   -1.6626   -7.8704   -9.5582 C   0  0  0  0  0  0  0  0  0  0  0  0
   -2.2621   -6.6781   -9.1747 C   0  0  0  0  0  0  0  0  0  0  0  0
   -1.8399   -6.0273   -8.0352 C   0  0  0  0  0  0  0  0  0  0  0  0
   -2.0855   -8.5114  -10.6794 O   0  0  0  0  0  0  0  0  0  0  0  0
   -3.1497   -7.9018  -11.4128 C   0  0  0  0  0  0  0  0  0  0  0  0
   -2.7553   -6.6275  -11.8345 F   0  0  0  0  0  0  0  0  0  0  0  0
   -3.4571   -8.6878  -12.5286 F   0  0  0  0  0  0  0  0  0  0  0  0
   -4.2784   -7.7934  -10.5935 F   0  0  0  0  0  0  0  0  0  0  0  0
    2.1446   -5.9153   -6.4465 C   0  0  0  0  0  0  0  0  0  0  0  0
    2.1333   -5.7373   -7.8302 C   0  0  0  0  0  0  0  0  0  0  0  0
    3.2428   -6.0737   -8.5762 C   0  0  0  0  0  0  0  0  0  0  0  0
    4.3718   -6.5902   -7.9510 C   0  0  0  0  0  0  0  0  0  0  0  0
    4.3855   -6.7690   -6.5725 C   0  0  0  0  0  0  0  0  0  0  0  0
    3.2811   -6.4285   -5.8210 C   0  0  0  0  0  0  0  0  0  0  0  0
    5.4942   -6.9305   -8.7093 N   0  0  0  0  0  0  0  0  0  0  0  0
    5.6184   -6.7888  -10.1674 C   0  0  0  0  0  0  0  0  0  0  0  0
    7.0155   -7.3127  -10.5614 C   0  0  0  0  0  0  0  0  0  0  0  0
    7.3843   -8.2439   -9.3765 C   0  0  0  0  0  0  0  0  0  0  0  0
    6.7531   -7.4855   -8.1795 C   0  0  0  0  0  0  0  0  0  0  0  0
    0.5047    2.4437   -0.8294 H   0  0  0  0  0  0  0  0  0  0  0  0
   -1.0275    2.2366   -1.7113 H   0  0  0  0  0  0  0  0  0  0  0  0
   -1.0380    2.4278    0.0583 H   0  0  0  0  0  0  0  0  0  0  0  0
   -0.3525    0.1370   -2.7295 H   0  0  0  0  0  0  0  0  0  0  0  0
   -0.1070   -3.3033   -0.2073 H   0  0  0  0  0  0  0  0  0  0  0  0
   -0.2189   -1.8550    1.7793 H   0  0  0  0  0  0  0  0  0  0  0  0
   -1.1921   -0.5713    3.1091 H   0  0  0  0  0  0  0  0  0  0  0  0
    0.5833   -0.4427    3.1058 H   0  0  0  0  0  0  0  0  0  0  0  0
    0.8478   -4.0917   -1.8951 H   0  0  0  0  0  0  0  0  0  0  0  0
   -0.9274   -4.2218   -1.8992 H   0  0  0  0  0  0  0  0  0  0  0  0
    0.6030   -8.1819   -7.0732 H   0  0  0  0  0  0  0  0  0  0  0  0
   -0.1684   -9.3371   -9.1016 H   0  0  0  0  0  0  0  0  0  0  0  0
   -3.0634   -6.2624   -9.7676 H   0  0  0  0  0  0  0  0  0  0  0  0
   -2.3098   -5.1023   -7.7351 H   0  0  0  0  0  0  0  0  0  0  0  0
    1.2562   -5.3367   -8.3165 H   0  0  0  0  0  0  0  0  0  0  0  0
    3.2346   -5.9361   -9.6473 H   0  0  0  0  0  0  0  0  0  0  0  0
    5.2639   -7.1708   -6.0894 H   0  0  0  0  0  0  0  0  0  0  0  0
    3.2941   -6.5631   -4.7495 H   0  0  0  0  0  0  0  0  0  0  0  0
    4.8478   -7.3783  -10.6641 H   0  0  0  0  0  0  0  0  0  0  0  0
    5.5234   -5.7396  -10.4473 H   0  0  0  0  0  0  0  0  0  0  0  0
    6.9675   -7.8754  -11.4937 H   0  0  0  0  0  0  0  0  0  0  0  0
    7.7269   -6.4908  -10.6419 H   0  0  0  0  0  0  0  0  0  0  0  0
    6.9351   -9.2294   -9.4996 H   0  0  0  0  0  0  0  0  0  0  0  0
    8.4655   -8.3207   -9.2618 H   0  0  0  0  0  0  0  0  0  0  0  0
    7.4110   -6.6828   -7.8465 H   0  0  0  0  0  0  0  0  0  0  0  0
    6.5487   -8.1742   -7.3597 H   0  0  0  0  0  0  0  0  0  0  0  0
  1  2  1  0  0  0  0
  1 42  1  0  0  0  0
  1 43  1  0  0  0  0
  1 44  1  0  0  0  0
  2  7  2  0  0  0  0
  2  3  1  0  0  0  0
  3  4  2  0  0  0  0
  3 45  1  0  0  0  0
  4  5  1  0  0  0  0
  4 13  1  0  0  0  0
  5  6  2  0  0  0  0
  5 46  1  0  0  0  0
  6  7  1  0  0  0  0
  6 47  1  0  0  0  0
  7  8  1  0  0  0  0
  8  9  1  0  0  0  0
  9 10  1  0  0  0  0
  9 48  1  0  0  0  0
  9 49  1  0  0  0  0
 10 11  2  0  0  0  0
 10 12  1  0  0  0  0
 13 14  1  0  0  0  0
 14 15  1  0  0  0  0
 14 50  1  0  0  0  0
 14 51  1  0  0  0  0
 15 19  1  0  0  0  0
 15 16  2  0  0  0  0
 16 17  1  0  0  0  0
 17 18  2  0  0  0  0
 17 31  1  0  0  0  0
 18 19  1  0  0  0  0
 18 20  1  0  0  0  0
 20 25  2  0  0  0  0
 20 21  1  0  0  0  0
 21 22  2  0  0  0  0
 21 52  1  0  0  0  0
 22 23  1  0  0  0  0
 22 53  1  0  0  0  0
 23 24  2  0  0  0  0
 23 26  1  0  0  0  0
 24 25  1  0  0  0  0
 24 54  1  0  0  0  0
 25 55  1  0  0  0  0
 26 27  1  0  0  0  0
 27 28  1  0  0  0  0
 27 29  1  0  0  0  0
 27 30  1  0  0  0  0
 31 36  2  0  0  0  0
 31 32  1  0  0  0  0
 32 33  2  0  0  0  0
 32 56  1  0  0  0  0
 33 34  1  0  0  0  0
 33 57  1  0  0  0  0
 34 35  2  0  0  0  0
 34 37  1  0  0  0  0
 35 36  1  0  0  0  0
 35 58  1  0  0  0  0
 36 59  1  0  0  0  0
 37 41  1  0  0  0  0
 37 38  1  0  0  0  0
 38 39  1  0  0  0  0
 38 60  1  0  0  0  0
 38 61  1  0  0  0  0
 39 40  1  0  0  0  0
 39 62  1  0  0  0  0
 39 63  1  0  0  0  0
 40 41  1  0  0  0  0
 40 64  1  0  0  0  0
 40 65  1  0  0  0  0
 41 66  1  0  0  0  0
 41 67  1  0  0  0  0
M  CHG  1  12  -1
M  END
$$$$
