CHEMBL1076163
 OpenBabel05272217113D

 74 79  0  0  0  0  0  0  0  0999 V2000
   -0.7966    2.0884   -0.9794 C   0  0  0  0  0  0  0  0  0  0  0  0
   -0.6716    0.6000   -0.7795 C   0  0  0  0  0  0  0  0  0  0  0  0
   -0.5468   -0.2357   -1.8725 C   0  0  0  0  0  0  0  0  0  0  0  0
   -0.4313   -1.6053   -1.6886 C   0  0  0  0  0  0  0  0  0  0  0  0
   -0.4410   -2.1363   -0.4071 C   0  0  0  0  0  0  0  0  0  0  0  0
   -0.5657   -1.3009    0.6856 C   0  0  0  0  0  0  0  0  0  0  0  0
   -0.6760    0.0696    0.5018 C   0  0  0  0  0  0  0  0  0  0  0  0
   -0.7931    0.8927    1.5780 O   0  0  0  0  0  0  0  0  0  0  0  0
   -0.7903    0.2781    2.8681 C   0  0  0  0  0  0  0  0  0  0  0  0
   -0.9281    1.3386    3.9299 C   0  0  0  0  0  0  0  0  0  0  0  0
   -1.0201    2.5119    3.6114 O   0  0  0  0  0  0  0  0  0  0  0  0
   -0.9475    1.0232    5.1075 O   0  5  0  0  0  0  0  0  0  0  0  0
   -0.3089   -2.4279   -2.7645 O   0  0  0  0  0  0  0  0  0  0  0  0
   -0.1942   -3.8277   -2.5012 C   0  0  0  0  0  0  0  0  0  0  0  0
   -0.0686   -4.5753   -3.8037 C   0  0  0  0  0  0  0  0  0  0  0  0
    1.0234   -4.8872   -4.4521 N   0  0  0  0  0  0  0  0  0  0  0  0
    0.9854   -5.5520   -5.5953 C   0  0  0  0  0  0  0  0  0  0  0  0
   -0.2843   -5.8942   -6.0577 C   0  0  0  0  0  0  0  0  0  0  0  0
   -1.3000   -5.2093   -4.7586 S   0  0  0  0  0  0  0  0  0  0  0  0
   -0.6786   -6.6235   -7.2777 C   0  0  0  0  0  0  0  0  0  0  0  0
   -0.0376   -7.8187   -7.6164 C   0  0  0  0  0  0  0  0  0  0  0  0
   -0.4066   -8.4981   -8.7551 C   0  0  0  0  0  0  0  0  0  0  0  0
   -1.4197   -7.9943   -9.5714 C   0  0  0  0  0  0  0  0  0  0  0  0
   -2.0601   -6.8013   -9.2350 C   0  0  0  0  0  0  0  0  0  0  0  0
   -1.6978   -6.1231   -8.0933 C   0  0  0  0  0  0  0  0  0  0  0  0
   -1.8157   -8.7271  -10.7980 C   0  0  0  0  0  0  0  0  0  0  0  0
   -1.1817   -9.9221  -11.1345 C   0  0  0  0  0  0  0  0  0  0  0  0
   -1.5548  -10.6001  -12.2771 C   0  0  0  0  0  0  0  0  0  0  0  0
   -2.5559  -10.0960  -13.0879 C   0  0  0  0  0  0  0  0  0  0  0  0
   -3.1886   -8.9106  -12.7590 C   0  0  0  0  0  0  0  0  0  0  0  0
   -2.8275   -8.2267  -11.6161 C   0  0  0  0  0  0  0  0  0  0  0  0
    2.2157   -5.9100   -6.3381 C   0  0  0  0  0  0  0  0  0  0  0  0
    2.2636   -5.7604   -7.7245 C   0  0  0  0  0  0  0  0  0  0  0  0
    3.4101   -6.0939   -8.4132 C   0  0  0  0  0  0  0  0  0  0  0  0
    4.5181   -6.5789   -7.7278 C   0  0  0  0  0  0  0  0  0  0  0  0
    4.4730   -6.7293   -6.3465 C   0  0  0  0  0  0  0  0  0  0  0  0
    3.3309   -6.3919   -5.6521 C   0  0  0  0  0  0  0  0  0  0  0  0
    5.6783   -6.9159   -8.4280 N   0  0  0  0  0  0  0  0  0  0  0  0
    6.8132   -7.5602   -7.7481 C   0  0  0  0  0  0  0  0  0  0  0  0
    7.2199   -8.7989   -8.5544 C   0  0  0  0  0  0  0  0  0  0  0  0
    7.4261   -8.4256   -9.9189 O   0  0  0  0  0  0  0  0  0  0  0  0
    6.2578   -7.9215  -10.5707 C   0  0  0  0  0  0  0  0  0  0  0  0
    5.7996   -6.6429   -9.8689 C   0  0  0  0  0  0  0  0  0  0  0  0
    0.1960    2.5387   -0.9862 H   0  0  0  0  0  0  0  0  0  0  0  0
   -1.2922    2.2871   -1.9296 H   0  0  0  0  0  0  0  0  0  0  0  0
   -1.3840    2.5160   -0.1668 H   0  0  0  0  0  0  0  0  0  0  0  0
   -0.5396    0.1777   -2.8703 H   0  0  0  0  0  0  0  0  0  0  0  0
   -0.3514   -3.2030   -0.2639 H   0  0  0  0  0  0  0  0  0  0  0  0
   -0.5740   -1.7144    1.6833 H   0  0  0  0  0  0  0  0  0  0  0  0
   -1.6252   -0.4190    2.9402 H   0  0  0  0  0  0  0  0  0  0  0  0
    0.1463   -0.2606    3.0119 H   0  0  0  0  0  0  0  0  0  0  0  0
    0.6896   -4.0113   -1.8902 H   0  0  0  0  0  0  0  0  0  0  0  0
   -1.0814   -4.1713   -1.9692 H   0  0  0  0  0  0  0  0  0  0  0  0
    0.7472   -8.2086   -6.9850 H   0  0  0  0  0  0  0  0  0  0  0  0
    0.0885   -9.4215   -9.0170 H   0  0  0  0  0  0  0  0  0  0  0  0
   -2.8439   -6.4123   -9.8680 H   0  0  0  0  0  0  0  0  0  0  0  0
   -2.1970   -5.2022   -7.8306 H   0  0  0  0  0  0  0  0  0  0  0  0
   -0.3997  -10.3164  -10.5025 H   0  0  0  0  0  0  0  0  0  0  0  0
   -1.0641  -11.5258  -12.5391 H   0  0  0  0  0  0  0  0  0  0  0  0
   -2.8444  -10.6298  -13.9813 H   0  0  0  0  0  0  0  0  0  0  0  0
   -3.9695   -8.5218  -13.3957 H   0  0  0  0  0  0  0  0  0  0  0  0
   -3.3252   -7.3036  -11.3579 H   0  0  0  0  0  0  0  0  0  0  0  0
    1.4030   -5.3840   -8.2575 H   0  0  0  0  0  0  0  0  0  0  0  0
    3.4476   -5.9786   -9.4864 H   0  0  0  0  0  0  0  0  0  0  0  0
    5.3349   -7.1070   -5.8165 H   0  0  0  0  0  0  0  0  0  0  0  0
    3.2980   -6.5048   -4.5785 H   0  0  0  0  0  0  0  0  0  0  0  0
    7.6514   -6.8655   -7.6946 H   0  0  0  0  0  0  0  0  0  0  0  0
    6.5176   -7.8578   -6.7421 H   0  0  0  0  0  0  0  0  0  0  0  0
    8.1424   -9.2120   -8.1466 H   0  0  0  0  0  0  0  0  0  0  0  0
    6.4287   -9.5465   -8.4971 H   0  0  0  0  0  0  0  0  0  0  0  0
    6.4882   -7.7033  -11.6135 H   0  0  0  0  0  0  0  0  0  0  0  0
    5.4631   -8.6659  -10.5207 H   0  0  0  0  0  0  0  0  0  0  0  0
    4.8331   -6.3334  -10.2666 H   0  0  0  0  0  0  0  0  0  0  0  0
    6.5341   -5.8543  -10.0325 H   0  0  0  0  0  0  0  0  0  0  0  0
  1  2  1  0  0  0  0
  1 44  1  0  0  0  0
  1 45  1  0  0  0  0
  1 46  1  0  0  0  0
  2  7  2  0  0  0  0
  2  3  1  0  0  0  0
  3  4  2  0  0  0  0
  3 47  1  0  0  0  0
  4  5  1  0  0  0  0
  4 13  1  0  0  0  0
  5  6  2  0  0  0  0
  5 48  1  0  0  0  0
  6  7  1  0  0  0  0
  6 49  1  0  0  0  0
  7  8  1  0  0  0  0
  8  9  1  0  0  0  0
  9 10  1  0  0  0  0
  9 50  1  0  0  0  0
  9 51  1  0  0  0  0
 10 11  2  0  0  0  0
 10 12  1  0  0  0  0
 13 14  1  0  0  0  0
 14 15  1  0  0  0  0
 14 52  1  0  0  0  0
 14 53  1  0  0  0  0
 15 19  1  0  0  0  0
 15 16  2  0  0  0  0
 16 17  1  0  0  0  0
 17 18  2  0  0  0  0
 17 32  1  0  0  0  0
 18 19  1  0  0  0  0
 18 20  1  0  0  0  0
 20 25  2  0  0  0  0
 20 21  1  0  0  0  0
 21 22  2  0  0  0  0
 21 54  1  0  0  0  0
 22 23  1  0  0  0  0
 22 55  1  0  0  0  0
 23 24  2  0  0  0  0
 23 26  1  0  0  0  0
 24 25  1  0  0  0  0
 24 56  1  0  0  0  0
 25 57  1  0  0  0  0
 26 31  2  0  0  0  0
 26 27  1  0  0  0  0
 27 28  2  0  0  0  0
 27 58  1  0  0  0  0
 28 29  1  0  0  0  0
 28 59  1  0  0  0  0
 29 30  2  0  0  0  0
 29 60  1  0  0  0  0
 30 31  1  0  0  0  0
 30 61  1  0  0  0  0
 31 62  1  0  0  0  0
 32 37  2  0  0  0  0
 32 33  1  0  0  0  0
 33 34  2  0  0  0  0
 33 63  1  0  0  0  0
 34 35  1  0  0  0  0
 34 64  1  0  0  0  0
 35 36  2  0  0  0  0
 35 38  1  0  0  0  0
 36 37  1  0  0  0  0
 36 65  1  0  0  0  0
 37 66  1  0  0  0  0
 38 43  1  0  0  0  0
 38 39  1  0  0  0  0
 39 40  1  0  0  0  0
 39 67  1  0  0  0  0
 39 68  1  0  0  0  0
 40 41  1  0  0  0  0
 40 69  1  0  0  0  0
 40 70  1  0  0  0  0
 41 42  1  0  0  0  0
 42 43  1  0  0  0  0
 42 71  1  0  0  0  0
 42 72  1  0  0  0  0
 43 73  1  0  0  0  0
 43 74  1  0  0  0  0
M  CHG  1  12  -1
M  END
$$$$
