CHEMBL522224
 OpenBabel05272217113D

 51 54  0  0  0  0  0  0  0  0999 V2000
    3.5843    1.0981   -6.5215 C   0  0  0  0  0  0  0  0  0  0  0  0
    3.0233   -0.0284   -5.6924 C   0  0  0  0  0  0  0  0  0  0  0  0
    2.3101   -1.0467   -6.3057 C   0  0  0  0  0  0  0  0  0  0  0  0
    1.7910   -2.0847   -5.5591 C   0  0  0  0  0  0  0  0  0  0  0  0
    1.9803   -2.1154   -4.1835 C   0  0  0  0  0  0  0  0  0  0  0  0
    2.7024   -1.0854   -3.5585 C   0  0  0  0  0  0  0  0  0  0  0  0
    3.2268   -0.0435   -4.3305 C   0  0  0  0  0  0  0  0  0  0  0  0
    2.9101   -1.1050   -2.1020 C   0  0  0  0  0  0  0  0  0  0  0  0
    3.4309   -0.1479   -1.5455 O   0  0  0  0  0  0  0  0  0  0  0  0
    2.5621   -2.0783   -1.4475 O   0  5  0  0  0  0  0  0  0  0  0  0
    1.4574   -3.1599   -3.4289 N   0  0  0  0  0  0  0  0  0  0  0  0
    1.2590   -4.3668   -3.9952 C   0  0  0  0  0  0  0  0  0  0  0  0
    1.6486   -4.5786   -5.1269 O   0  0  0  0  0  0  0  0  0  0  0  0
    0.5678   -5.4328   -3.2400 C   0  0  0  0  0  0  0  0  0  0  0  0
    0.1139   -5.1911   -1.9420 C   0  0  0  0  0  0  0  0  0  0  0  0
   -0.5309   -6.1901   -1.2429 C   0  0  0  0  0  0  0  0  0  0  0  0
   -0.7279   -7.4299   -1.8252 C   0  0  0  0  0  0  0  0  0  0  0  0
   -0.2807   -7.6761   -3.1110 C   0  0  0  0  0  0  0  0  0  0  0  0
    0.3607   -6.6838   -3.8234 C   0  0  0  0  0  0  0  0  0  0  0  0
   -0.5366   -9.2583   -3.8429 S   0  0  0  0  0  0  0  0  0  0  0  0
   -0.0007   -9.1894   -5.1572 O   0  0  0  0  0  0  0  0  0  0  0  0
   -0.1015  -10.2208   -2.8923 O   0  0  0  0  0  0  0  0  0  0  0  0
   -2.1716   -9.4624   -4.0086 N   0  0  0  0  0  0  0  0  0  0  0  0
   -2.9346  -10.3269   -3.2717 C   0  0  0  0  0  0  0  0  0  0  0  0
   -4.2181  -10.2466   -3.6564 C   0  0  0  0  0  0  0  0  0  0  0  0
   -4.2827   -9.2490   -4.7273 C   0  0  0  0  0  0  0  0  0  0  0  0
   -2.9668   -8.7832   -4.9043 C   0  0  0  0  0  0  0  0  0  0  0  0
   -2.7119   -7.8101   -5.8648 C   0  0  0  0  0  0  0  0  0  0  0  0
   -3.7469   -7.3127   -6.6264 C   0  0  0  0  0  0  0  0  0  0  0  0
   -5.0437   -7.7728   -6.4454 C   0  0  0  0  0  0  0  0  0  0  0  0
   -5.3152   -8.7347   -5.5133 C   0  0  0  0  0  0  0  0  0  0  0  0
   -1.3087   -7.3010   -6.0715 C   0  0  0  0  0  0  0  0  0  0  0  0
    4.5881    0.8373   -6.8571 H   0  0  0  0  0  0  0  0  0  0  0  0
    2.9439    1.2658   -7.3874 H   0  0  0  0  0  0  0  0  0  0  0  0
    3.6269    2.0059   -5.9197 H   0  0  0  0  0  0  0  0  0  0  0  0
    2.1593   -1.0274   -7.3749 H   0  0  0  0  0  0  0  0  0  0  0  0
    1.2366   -2.8740   -6.0449 H   0  0  0  0  0  0  0  0  0  0  0  0
    3.7870    0.7501   -3.8586 H   0  0  0  0  0  0  0  0  0  0  0  0
    1.2354   -3.0200   -2.4951 H   0  0  0  0  0  0  0  0  0  0  0  0
    0.2676   -4.2241   -1.4861 H   0  0  0  0  0  0  0  0  0  0  0  0
   -0.8825   -6.0044   -0.2388 H   0  0  0  0  0  0  0  0  0  0  0  0
   -1.2327   -8.2090   -1.2733 H   0  0  0  0  0  0  0  0  0  0  0  0
    0.7054   -6.8758   -4.8288 H   0  0  0  0  0  0  0  0  0  0  0  0
   -2.5595  -10.9778   -2.4958 H   0  0  0  0  0  0  0  0  0  0  0  0
   -5.0461  -10.8106   -3.2532 H   0  0  0  0  0  0  0  0  0  0  0  0
   -3.5470   -6.5568   -7.3715 H   0  0  0  0  0  0  0  0  0  0  0  0
   -5.8436   -7.3722   -7.0505 H   0  0  0  0  0  0  0  0  0  0  0  0
   -6.3270   -9.0871   -5.3771 H   0  0  0  0  0  0  0  0  0  0  0  0
   -0.8186   -7.8909   -6.8460 H   0  0  0  0  0  0  0  0  0  0  0  0
   -1.3428   -6.2556   -6.3780 H   0  0  0  0  0  0  0  0  0  0  0  0
   -0.7496   -7.3884   -5.1398 H   0  0  0  0  0  0  0  0  0  0  0  0
  1  2  1  0  0  0  0
  1 33  1  0  0  0  0
  1 34  1  0  0  0  0
  1 35  1  0  0  0  0
  2  7  2  0  0  0  0
  2  3  1  0  0  0  0
  3  4  2  0  0  0  0
  3 36  1  0  0  0  0
  4  5  1  0  0  0  0
  4 37  1  0  0  0  0
  5  6  2  0  0  0  0
  5 11  1  0  0  0  0
  6  7  1  0  0  0  0
  6  8  1  0  0  0  0
  7 38  1  0  0  0  0
  8  9  2  0  0  0  0
  8 10  1  0  0  0  0
 11 12  1  0  0  0  0
 11 39  1  0  0  0  0
 12 13  2  0  0  0  0
 12 14  1  0  0  0  0
 14 19  2  0  0  0  0
 14 15  1  0  0  0  0
 15 16  2  0  0  0  0
 15 40  1  0  0  0  0
 16 17  1  0  0  0  0
 16 41  1  0  0  0  0
 17 18  2  0  0  0  0
 17 42  1  0  0  0  0
 18 19  1  0  0  0  0
 18 20  1  0  0  0  0
 19 43  1  0  0  0  0
 20 21  2  0  0  0  0
 20 22  2  0  0  0  0
 20 23  1  0  0  0  0
 23 27  1  0  0  0  0
 23 24  1  0  0  0  0
 24 25  2  0  0  0  0
 24 44  1  0  0  0  0
 25 26  1  0  0  0  0
 25 45  1  0  0  0  0
 26 31  2  0  0  0  0
 26 27  1  0  0  0  0
 27 28  2  0  0  0  0
 28 29  1  0  0  0  0
 28 32  1  0  0  0  0
 29 30  2  0  0  0  0
 29 46  1  0  0  0  0
 30 31  1  0  0  0  0
 30 47  1  0  0  0  0
 31 48  1  0  0  0  0
 32 49  1  0  0  0  0
 32 50  1  0  0  0  0
 32 51  1  0  0  0  0
M  CHG  1  10  -1
M  END
$$$$
