CHEMBL1079965
 OpenBabel05272217113D

 61 65  0  0  0  0  0  0  0  0999 V2000
   -0.4939    2.0089   -0.7881 C   0  0  0  0  0  0  0  0  0  0  0  0
   -0.3853    0.5145   -0.6262 C   0  0  0  0  0  0  0  0  0  0  0  0
   -0.3228   -0.2984   -1.7414 C   0  0  0  0  0  0  0  0  0  0  0  0
   -0.2223   -1.6735   -1.5923 C   0  0  0  0  0  0  0  0  0  0  0  0
   -0.1847   -2.2327   -0.3234 C   0  0  0  0  0  0  0  0  0  0  0  0
   -0.2472   -1.4200    0.7915 C   0  0  0  0  0  0  0  0  0  0  0  0
   -0.3424   -0.0441    0.6424 C   0  0  0  0  0  0  0  0  0  0  0  0
   -0.3983    0.7565    1.7401 O   0  0  0  0  0  0  0  0  0  0  0  0
   -0.3492    0.1134    3.0153 C   0  0  0  0  0  0  0  0  0  0  0  0
   -0.4224    1.1520    4.1048 C   0  0  0  0  0  0  0  0  0  0  0  0
   -0.5086    2.3334    3.8161 O   0  0  0  0  0  0  0  0  0  0  0  0
   -0.3954    0.8109    5.2750 O   0  5  0  0  0  0  0  0  0  0  0  0
   -0.1612   -2.4737   -2.6901 O   0  0  0  0  0  0  0  0  0  0  0  0
   -0.0586   -3.8807   -2.4623 C   0  0  0  0  0  0  0  0  0  0  0  0
   -0.0028   -4.6009   -3.7849 C   0  0  0  0  0  0  0  0  0  0  0  0
    1.0538   -4.9156   -4.4874 N   0  0  0  0  0  0  0  0  0  0  0  0
    0.9542   -5.5550   -5.6421 C   0  0  0  0  0  0  0  0  0  0  0  0
   -0.3392   -5.8670   -6.0544 C   0  0  0  0  0  0  0  0  0  0  0  0
   -1.2854   -5.1940   -4.6979 S   0  0  0  0  0  0  0  0  0  0  0  0
   -0.7994   -6.5640   -7.2720 C   0  0  0  0  0  0  0  0  0  0  0  0
   -0.1988   -7.7633   -7.6618 C   0  0  0  0  0  0  0  0  0  0  0  0
   -0.6315   -8.4106   -8.7993 C   0  0  0  0  0  0  0  0  0  0  0  0
   -1.6630   -7.8722   -9.5572 C   0  0  0  0  0  0  0  0  0  0  0  0
   -2.2626   -6.6800   -9.1736 C   0  0  0  0  0  0  0  0  0  0  0  0
   -1.8404   -6.0291   -8.0342 C   0  0  0  0  0  0  0  0  0  0  0  0
   -2.0865   -8.5137  -10.6778 O   0  0  0  0  0  0  0  0  0  0  0  0
   -3.1515   -7.9048  -11.4107 C   0  0  0  0  0  0  0  0  0  0  0  0
   -2.7579   -6.6304  -11.8330 F   0  0  0  0  0  0  0  0  0  0  0  0
   -3.4595   -8.6913  -12.5259 F   0  0  0  0  0  0  0  0  0  0  0  0
   -4.2796   -7.7965  -10.5905 F   0  0  0  0  0  0  0  0  0  0  0  0
    2.1446   -5.9160   -6.4463 C   0  0  0  0  0  0  0  0  0  0  0  0
    2.1337   -5.7389   -7.8298 C   0  0  0  0  0  0  0  0  0  0  0  0
    3.2431   -6.0767   -8.5765 C   0  0  0  0  0  0  0  0  0  0  0  0
    4.3733   -6.5919   -7.9562 C   0  0  0  0  0  0  0  0  0  0  0  0
    4.3910   -6.7684   -6.5765 C   0  0  0  0  0  0  0  0  0  0  0  0
    3.2810   -6.4282   -5.8218 C   0  0  0  0  0  0  0  0  0  0  0  0
    5.4940   -7.2652   -5.9520 O   0  0  0  0  0  0  0  0  0  0  0  0
    6.4520   -7.9382   -6.7759 C   0  0  0  0  0  0  0  0  0  0  0  0
    6.7001   -7.0795   -8.0234 C   0  0  0  0  0  0  0  0  0  0  0  0
    5.4558   -6.9216   -8.7135 O   0  0  0  0  0  0  0  0  0  0  0  0
    0.5048    2.4434   -0.8292 H   0  0  0  0  0  0  0  0  0  0  0  0
   -1.0274    2.2365   -1.7110 H   0  0  0  0  0  0  0  0  0  0  0  0
   -1.0378    2.4275    0.0586 H   0  0  0  0  0  0  0  0  0  0  0  0
   -0.3524    0.1369   -2.7293 H   0  0  0  0  0  0  0  0  0  0  0  0
   -0.1068   -3.3036   -0.2073 H   0  0  0  0  0  0  0  0  0  0  0  0
   -0.2186   -1.8554    1.7794 H   0  0  0  0  0  0  0  0  0  0  0  0
   -1.1917   -0.5718    3.1093 H   0  0  0  0  0  0  0  0  0  0  0  0
    0.5836   -0.4431    3.1059 H   0  0  0  0  0  0  0  0  0  0  0  0
    0.8480   -4.0918   -1.8951 H   0  0  0  0  0  0  0  0  0  0  0  0
   -0.9272   -4.2219   -1.8992 H   0  0  0  0  0  0  0  0  0  0  0  0
    0.6038   -8.1826   -7.0731 H   0  0  0  0  0  0  0  0  0  0  0  0
   -0.1675   -9.3378   -9.1016 H   0  0  0  0  0  0  0  0  0  0  0  0
   -3.0643   -6.2645   -9.7662 H   0  0  0  0  0  0  0  0  0  0  0  0
   -2.3106   -5.1043   -7.7339 H   0  0  0  0  0  0  0  0  0  0  0  0
    1.2568   -5.3379   -8.3162 H   0  0  0  0  0  0  0  0  0  0  0  0
    3.2327   -5.9395   -9.6477 H   0  0  0  0  0  0  0  0  0  0  0  0
    3.2942   -6.5630   -4.7503 H   0  0  0  0  0  0  0  0  0  0  0  0
    7.3845   -8.0659   -6.2261 H   0  0  0  0  0  0  0  0  0  0  0  0
    6.0626   -8.9123   -7.0717 H   0  0  0  0  0  0  0  0  0  0  0  0
    7.0828   -6.1028   -7.7273 H   0  0  0  0  0  0  0  0  0  0  0  0
    7.4207   -7.5755   -8.6737 H   0  0  0  0  0  0  0  0  0  0  0  0
  1  2  1  0  0  0  0
  1 41  1  0  0  0  0
  1 42  1  0  0  0  0
  1 43  1  0  0  0  0
  2  7  2  0  0  0  0
  2  3  1  0  0  0  0
  3  4  2  0  0  0  0
  3 44  1  0  0  0  0
  4  5  1  0  0  0  0
  4 13  1  0  0  0  0
  5  6  2  0  0  0  0
  5 45  1  0  0  0  0
  6  7  1  0  0  0  0
  6 46  1  0  0  0  0
  7  8  1  0  0  0  0
  8  9  1  0  0  0  0
  9 10  1  0  0  0  0
  9 47  1  0  0  0  0
  9 48  1  0  0  0  0
 10 11  2  0  0  0  0
 10 12  1  0  0  0  0
 13 14  1  0  0  0  0
 14 15  1  0  0  0  0
 14 49  1  0  0  0  0
 14 50  1  0  0  0  0
 15 19  1  0  0  0  0
 15 16  2  0  0  0  0
 16 17  1  0  0  0  0
 17 18  2  0  0  0  0
 17 31  1  0  0  0  0
 18 19  1  0  0  0  0
 18 20  1  0  0  0  0
 20 25  2  0  0  0  0
 20 21  1  0  0  0  0
 21 22  2  0  0  0  0
 21 51  1  0  0  0  0
 22 23  1  0  0  0  0
 22 52  1  0  0  0  0
 23 24  2  0  0  0  0
 23 26  1  0  0  0  0
 24 25  1  0  0  0  0
 24 53  1  0  0  0  0
 25 54  1  0  0  0  0
 26 27  1  0  0  0  0
 27 28  1  0  0  0  0
 27 29  1  0  0  0  0
 27 30  1  0  0  0  0
 31 36  2  0  0  0  0
 31 32  1  0  0  0  0
 32 33  2  0  0  0  0
 32 55  1  0  0  0  0
 33 34  1  0  0  0  0
 33 56  1  0  0  0  0
 34 40  1  0  0  0  0
 34 35  2  0  0  0  0
 35 36  1  0  0  0  0
 35 37  1  0  0  0  0
 36 57  1  0  0  0  0
 37 38  1  0  0  0  0
 38 39  1  0  0  0  0
 38 58  1  0  0  0  0
 38 59  1  0  0  0  0
 39 40  1  0  0  0  0
 39 60  1  0  0  0  0
 39 61  1  0  0  0  0
M  CHG  1  12  -1
M  END
$$$$
